*SPICE netlist created from BLIF module area_sys by blif2BSpice
.include /usr/share/qflow/tech/osu018/osu018_stdcells.sp
.subckt area_sys vdd gnd clk reset block0[0] block0[1] block0[2] block0[3] block0[4] block0[5] block0[6] block0[7] block1[0] block1[1] block1[2] block1[3] block1[4] block1[5] block1[6] block1[7] block2[0] block2[1] block2[2] block2[3] block2[4] block2[5] block2[6] block2[7] block3[0] block3[1] block3[2] block3[3] block3[4] block3[5] block3[6] block3[7] block4[0] block4[1] block4[2] block4[3] block4[4] block4[5] block4[6] block4[7] block5[0] block5[1] block5[2] block5[3] block5[4] block5[5] block5[6] block5[7] block6[0] block6[1] block6[2] block6[3] block6[4] block6[5] block6[6] block6[7] block7[0] block7[1] block7[2] block7[3] block7[4] block7[5] block7[6] block7[7] block8[0] block8[1] block8[2] block8[3] block8[4] block8[5] block8[6] block8[7] block9[0] block9[1] block9[2] block9[3] block9[4] block9[5] block9[6] block9[7] block10[0] block10[1] block10[2] block10[3] block10[4] block10[5] block10[6] block10[7] block11[0] block11[1] block11[2] block11[3] block11[4] block11[5] block11[6] block11[7] start target[0] target[1] target[2] target[3] target[4] target[5] target[6] target[7] target[8] target[9] target[10] target[11] target[12] target[13] target[14] target[15] nonce0[0] nonce0[1] nonce0[2] nonce0[3] nonce0[4] nonce0[5] nonce0[6] nonce0[7] nonce1[0] nonce1[1] nonce1[2] nonce1[3] nonce1[4] nonce1[5] nonce1[6] nonce1[7] nonce2[0] nonce2[1] nonce2[2] nonce2[3] nonce2[4] nonce2[5] nonce2[6] nonce2[7] nonce3[0] nonce3[1] nonce3[2] nonce3[3] nonce3[4] nonce3[5] nonce3[6] nonce3[7] finish 
XBUFX4_1 vdd gnd _10_ _10__bF$buf3 BUFX4
XBUFX4_2 vdd gnd _10_ _10__bF$buf2 BUFX4
XBUFX4_3 vdd gnd _10_ _10__bF$buf1 BUFX4
XBUFX4_4 vdd gnd _10_ _10__bF$buf0 BUFX4
XCLKBUF1_1 clk vdd gnd clk_bF$buf11 CLKBUF1
XCLKBUF1_2 clk vdd gnd clk_bF$buf10 CLKBUF1
XCLKBUF1_3 clk vdd gnd clk_bF$buf9 CLKBUF1
XCLKBUF1_4 clk vdd gnd clk_bF$buf8 CLKBUF1
XCLKBUF1_5 clk vdd gnd clk_bF$buf7 CLKBUF1
XCLKBUF1_6 clk vdd gnd clk_bF$buf6 CLKBUF1
XCLKBUF1_7 clk vdd gnd clk_bF$buf5 CLKBUF1
XCLKBUF1_8 clk vdd gnd clk_bF$buf4 CLKBUF1
XCLKBUF1_9 clk vdd gnd clk_bF$buf3 CLKBUF1
XCLKBUF1_10 clk vdd gnd clk_bF$buf2 CLKBUF1
XCLKBUF1_11 clk vdd gnd clk_bF$buf1 CLKBUF1
XCLKBUF1_12 clk vdd gnd clk_bF$buf0 CLKBUF1
XBUFX4_5 vdd gnd _27_ _27__bF$buf3 BUFX4
XBUFX4_6 vdd gnd _27_ _27__bF$buf2 BUFX4
XBUFX4_7 vdd gnd _27_ _27__bF$buf1 BUFX4
XBUFX4_8 vdd gnd _27_ _27__bF$buf0 BUFX4
XBUFX4_9 vdd gnd _417_ _417__bF$buf3 BUFX4
XBUFX4_10 vdd gnd _417_ _417__bF$buf2 BUFX4
XBUFX4_11 vdd gnd _417_ _417__bF$buf1 BUFX4
XBUFX4_12 vdd gnd _417_ _417__bF$buf0 BUFX4
XBUFX4_13 vdd gnd _18_ _18__bF$buf3 BUFX4
XBUFX4_14 vdd gnd _18_ _18__bF$buf2 BUFX4
XBUFX4_15 vdd gnd _18_ _18__bF$buf1 BUFX4
XBUFX4_16 vdd gnd _18_ _18__bF$buf0 BUFX4
XBUFX4_17 vdd gnd micro.abc_calculation_ints.counter[4] micro.abc_calculation_ints.counter[4_bF$buf4] BUFX4
XBUFX4_18 vdd gnd micro.abc_calculation_ints.counter[4] micro.abc_calculation_ints.counter[4_bF$buf3] BUFX4
XBUFX4_19 vdd gnd micro.abc_calculation_ints.counter[4] micro.abc_calculation_ints.counter[4_bF$buf2] BUFX4
XBUFX4_20 vdd gnd micro.abc_calculation_ints.counter[4] micro.abc_calculation_ints.counter[4_bF$buf1] BUFX4
XBUFX4_21 vdd gnd micro.abc_calculation_ints.counter[4] micro.abc_calculation_ints.counter[4_bF$buf0] BUFX4
XBUFX4_22 vdd gnd _26_ _26__bF$buf3 BUFX4
XBUFX4_23 vdd gnd _26_ _26__bF$buf2 BUFX4
XBUFX4_24 vdd gnd _26_ _26__bF$buf1 BUFX4
XBUFX4_25 vdd gnd _26_ _26__bF$buf0 BUFX4
XBUFX4_26 vdd gnd _20_ _20__bF$buf3 BUFX4
XBUFX4_27 vdd gnd _20_ _20__bF$buf2 BUFX4
XBUFX4_28 vdd gnd _20_ _20__bF$buf1 BUFX4
XBUFX4_29 vdd gnd _20_ _20__bF$buf0 BUFX4
XBUFX4_30 vdd gnd _583_ _583__bF$buf6 BUFX4
XBUFX4_31 vdd gnd _583_ _583__bF$buf5 BUFX4
XBUFX4_32 vdd gnd _583_ _583__bF$buf4 BUFX4
XBUFX4_33 vdd gnd _583_ _583__bF$buf3 BUFX4
XBUFX4_34 vdd gnd _583_ _583__bF$buf2 BUFX4
XBUFX4_35 vdd gnd _583_ _583__bF$buf1 BUFX4
XBUFX4_36 vdd gnd _583_ _583__bF$buf0 BUFX4
XBUFX4_37 vdd gnd _63_ _63__bF$buf3 BUFX4
XBUFX4_38 vdd gnd _63_ _63__bF$buf2 BUFX4
XBUFX4_39 vdd gnd _63_ _63__bF$buf1 BUFX4
XBUFX4_40 vdd gnd _63_ _63__bF$buf0 BUFX4
XBUFX4_41 vdd gnd reset reset_bF$buf5 BUFX4
XBUFX4_42 vdd gnd reset reset_bF$buf4 BUFX4
XBUFX4_43 vdd gnd reset reset_bF$buf3 BUFX4
XBUFX4_44 vdd gnd reset reset_bF$buf2 BUFX4
XBUFX4_45 vdd gnd reset reset_bF$buf1 BUFX4
XBUFX4_46 vdd gnd reset reset_bF$buf0 BUFX4
XBUFX4_47 vdd gnd _591_ _591__bF$buf3 BUFX4
XBUFX4_48 vdd gnd _591_ _591__bF$buf2 BUFX4
XBUFX4_49 vdd gnd _591_ _591__bF$buf1 BUFX4
XBUFX4_50 vdd gnd _591_ _591__bF$buf0 BUFX4
XNAND2X1_1 vdd _22_ gnd counter[0] invalid_nonce NAND2X1
XNOR2X1_1 vdd _22_ gnd _23_ counter[1] NOR2X1
XAND2X2_1 vdd gnd _13_ _14_ _24_ AND2X2
XAND2X2_2 vdd gnd _16_ counter[3] _25_ AND2X2
XNAND3X1_1 _25_ vdd gnd _23_ _24_ _26_ NAND3X1
XINVX8_1 vdd gnd _20__bF$buf0 _27_ INVX8
XOAI21X1_1 gnd vdd _26__bF$buf2 _27__bF$buf1 _28_ loop_limit_inst.compare_inst.number0[0] OAI21X1
XAOI21X1_1 gnd vdd _21_ _28_ _3_[0] _10__bF$buf0 AOI21X1
XNAND3X1_2 _20__bF$buf2 vdd gnd current_loop_actualize[1] _18__bF$buf3 _29_ NAND3X1
XOAI21X1_2 gnd vdd _26__bF$buf2 _27__bF$buf1 _30_ loop_limit_inst.compare_inst.number0[1] OAI21X1
XAOI21X1_2 gnd vdd _29_ _30_ _3_[1] _10__bF$buf0 AOI21X1
XNAND3X1_3 _20__bF$buf1 vdd gnd current_loop_actualize[2] _18__bF$buf1 _31_ NAND3X1
XOAI21X1_3 gnd vdd _26__bF$buf1 _27__bF$buf3 _32_ loop_limit_inst.compare_inst.number0[2] OAI21X1
XAOI21X1_3 gnd vdd _31_ _32_ _3_[2] _10__bF$buf2 AOI21X1
XNAND3X1_4 _20__bF$buf2 vdd gnd current_loop_actualize[3] _18__bF$buf3 _33_ NAND3X1
XOAI21X1_4 gnd vdd _26__bF$buf2 _27__bF$buf1 _34_ loop_limit_inst.compare_inst.number0[3] OAI21X1
XAOI21X1_4 gnd vdd _33_ _34_ _3_[3] _10__bF$buf2 AOI21X1
XNAND3X1_5 _20__bF$buf1 vdd gnd current_loop_actualize[4] _18__bF$buf1 _35_ NAND3X1
XOAI21X1_5 gnd vdd _26__bF$buf1 _27__bF$buf3 _36_ loop_limit_inst.compare_inst.number0[4] OAI21X1
XAOI21X1_5 gnd vdd _35_ _36_ _3_[4] _10__bF$buf2 AOI21X1
XNAND3X1_6 _20__bF$buf1 vdd gnd current_loop_actualize[5] _18__bF$buf1 _37_ NAND3X1
XOAI21X1_6 gnd vdd _26__bF$buf1 _27__bF$buf3 _38_ loop_limit_inst.compare_inst.number0[5] OAI21X1
XAOI21X1_6 gnd vdd _37_ _38_ _3_[5] _10__bF$buf2 AOI21X1
XNAND3X1_7 _20__bF$buf1 vdd gnd current_loop_actualize[6] _18__bF$buf0 _39_ NAND3X1
XOAI21X1_7 gnd vdd _26__bF$buf1 _27__bF$buf3 _40_ loop_limit_inst.compare_inst.number0[6] OAI21X1
XAOI21X1_7 gnd vdd _39_ _40_ _3_[6] _10__bF$buf1 AOI21X1
XNAND3X1_8 _20__bF$buf3 vdd gnd current_loop_actualize[7] _18__bF$buf0 _41_ NAND3X1
XOAI21X1_8 gnd vdd _26__bF$buf0 _27__bF$buf3 _42_ loop_limit_inst.compare_inst.number0[7] OAI21X1
XAOI21X1_8 gnd vdd _41_ _42_ _3_[7] _10__bF$buf1 AOI21X1
XNAND3X1_9 _20__bF$buf3 vdd gnd current_loop_actualize[8] _18__bF$buf0 _43_ NAND3X1
XOAI21X1_9 gnd vdd _26__bF$buf0 _27__bF$buf0 _44_ loop_limit_inst.compare_inst.number0[8] OAI21X1
XAOI21X1_9 gnd vdd _43_ _44_ _3_[8] _10__bF$buf1 AOI21X1
XNAND3X1_10 _20__bF$buf2 vdd gnd current_loop_actualize[9] _18__bF$buf1 _45_ NAND3X1
XOAI21X1_10 gnd vdd _26__bF$buf2 _27__bF$buf1 _46_ loop_limit_inst.compare_inst.number0[9] OAI21X1
XAOI21X1_10 gnd vdd _45_ _46_ _3_[9] _10__bF$buf2 AOI21X1
XNAND3X1_11 _20__bF$buf3 vdd gnd current_loop_actualize[10] _18__bF$buf0 _47_ NAND3X1
XOAI21X1_11 gnd vdd _26__bF$buf0 _27__bF$buf0 _48_ loop_limit_inst.compare_inst.number0[10] OAI21X1
XAOI21X1_11 gnd vdd _47_ _48_ _3_[10] _10__bF$buf1 AOI21X1
XNAND3X1_12 _20__bF$buf3 vdd gnd current_loop_actualize[11] _18__bF$buf2 _49_ NAND3X1
XOAI21X1_12 gnd vdd _26__bF$buf0 _27__bF$buf0 _50_ loop_limit_inst.compare_inst.number0[11] OAI21X1
XAOI21X1_12 gnd vdd _49_ _50_ _3_[11] _10__bF$buf1 AOI21X1
XNAND3X1_13 _20__bF$buf3 vdd gnd current_loop_actualize[12] _18__bF$buf2 _51_ NAND3X1
XOAI21X1_13 gnd vdd _26__bF$buf3 _27__bF$buf2 _52_ loop_limit_inst.compare_inst.number0[12] OAI21X1
XAOI21X1_13 gnd vdd _51_ _52_ _3_[12] _10__bF$buf3 AOI21X1
XNAND3X1_14 _20__bF$buf0 vdd gnd current_loop_actualize[13] _18__bF$buf2 _53_ NAND3X1
XOAI21X1_14 gnd vdd _26__bF$buf3 _27__bF$buf2 _54_ loop_limit_inst.compare_inst.number0[13] OAI21X1
XAOI21X1_14 gnd vdd _53_ _54_ _3_[13] _10__bF$buf3 AOI21X1
XNAND3X1_15 _20__bF$buf0 vdd gnd current_loop_actualize[14] _18__bF$buf2 _55_ NAND3X1
XOAI21X1_15 gnd vdd _26__bF$buf3 _27__bF$buf2 _56_ loop_limit_inst.compare_inst.number0[14] OAI21X1
XAOI21X1_15 gnd vdd _55_ _56_ _3_[14] _10__bF$buf3 AOI21X1
XNAND3X1_16 _20__bF$buf0 vdd gnd current_loop_actualize[15] _18__bF$buf3 _57_ NAND3X1
XOAI21X1_16 gnd vdd _26__bF$buf3 _27__bF$buf0 _58_ loop_limit_inst.compare_inst.number0[15] OAI21X1
XAOI21X1_16 gnd vdd _57_ _58_ _3_[15] _10__bF$buf3 AOI21X1
XINVX2_1 vdd gnd _59_ _135_ INVX2
XNAND2X1_2 vdd _60_ gnd reset_bF$buf2 validity.validity_reg NAND2X1
XNOR2X1_2 vdd _10__bF$buf3 gnd _61_ start NOR2X1
XAOI21X1_17 gnd vdd _59_ _60_ _1_ _61_ AOI21X1
XINVX1_1 _139_[0] _62_ vdd gnd INVX1
XOAI21X1_17 gnd vdd _10__bF$buf3 start _63_ _60_ OAI21X1
XOAI21X1_18 gnd vdd _10__bF$buf0 start _64_ hash_array2_2 OAI21X1
XAOI22X1_1 gnd vdd _63__bF$buf1 _64_ _7_[0] _62_ _60_ AOI22X1
XINVX1_2 _139_[1] _65_ vdd gnd INVX1
XNOR2X1_3 vdd _63__bF$buf0 gnd _7_[1] _65_ NOR2X1
XINVX1_3 _139_[2] _66_ vdd gnd INVX1
XNOR2X1_4 vdd _63__bF$buf1 gnd _7_[2] _66_ NOR2X1
XINVX1_4 _139_[3] _67_ vdd gnd INVX1
XNOR2X1_5 vdd _63__bF$buf3 gnd _7_[3] _67_ NOR2X1
XINVX1_5 _139_[4] _68_ vdd gnd INVX1
XNOR2X1_6 vdd _63__bF$buf2 gnd _7_[4] _68_ NOR2X1
XINVX1_6 _139_[5] _69_ vdd gnd INVX1
XNOR2X1_7 vdd _63__bF$buf1 gnd _7_[5] _69_ NOR2X1
XINVX1_7 _139_[6] _70_ vdd gnd INVX1
XNOR2X1_8 vdd _63__bF$buf2 gnd _7_[6] _70_ NOR2X1
XINVX1_8 _139_[7] _71_ vdd gnd INVX1
XNOR2X1_9 vdd _63__bF$buf2 gnd _7_[7] _71_ NOR2X1
XINVX1_9 _138_[0] _72_ vdd gnd INVX1
XOAI21X1_19 gnd vdd _10__bF$buf0 start _73_ hash_array2_1 OAI21X1
XAOI22X1_2 gnd vdd _63__bF$buf1 _73_ _6_[0] _72_ _60_ AOI22X1
XINVX1_10 _138_[1] _74_ vdd gnd INVX1
XNOR2X1_10 vdd _63__bF$buf3 gnd _6_[1] _74_ NOR2X1
XINVX1_11 _138_[2] _75_ vdd gnd INVX1
XNOR2X1_11 vdd _63__bF$buf1 gnd _6_[2] _75_ NOR2X1
XINVX1_12 _138_[3] _76_ vdd gnd INVX1
XNOR2X1_12 vdd _63__bF$buf0 gnd _6_[3] _76_ NOR2X1
XINVX1_13 _138_[4] _77_ vdd gnd INVX1
XNOR2X1_13 vdd _63__bF$buf0 gnd _6_[4] _77_ NOR2X1
XINVX1_14 _138_[5] _78_ vdd gnd INVX1
XNOR2X1_14 vdd _63__bF$buf2 gnd _6_[5] _78_ NOR2X1
XINVX1_15 _138_[6] _79_ vdd gnd INVX1
XNOR2X1_15 vdd _63__bF$buf0 gnd _6_[6] _79_ NOR2X1
XINVX1_16 _138_[7] _80_ vdd gnd INVX1
XNOR2X1_16 vdd _63__bF$buf0 gnd _6_[7] _80_ NOR2X1
XINVX1_17 _137_[0] _81_ vdd gnd INVX1
XINVX1_18 validity.validity_reg _82_ vdd gnd INVX1
XOAI21X1_20 gnd vdd _82_ hash_array2_0 _83_ start OAI21X1
XAOI22X1_3 gnd vdd _83_ reset_bF$buf2 _5_[0] _81_ _60_ AOI22X1
XINVX1_19 _137_[1] _84_ vdd gnd INVX1
XNOR2X1_17 vdd _63__bF$buf2 gnd _5_[1] _84_ NOR2X1
XINVX1_20 _137_[2] _85_ vdd gnd INVX1
XNOR2X1_18 vdd _63__bF$buf2 gnd _5_[2] _85_ NOR2X1
XINVX1_21 _137_[3] _86_ vdd gnd INVX1
XNOR2X1_19 vdd _63__bF$buf0 gnd _5_[3] _86_ NOR2X1
XINVX1_22 _137_[4] _87_ vdd gnd INVX1
XNOR2X1_20 vdd _63__bF$buf3 gnd _5_[4] _87_ NOR2X1
XINVX1_23 _137_[5] _88_ vdd gnd INVX1
XNOR2X1_21 vdd _63__bF$buf3 gnd _5_[5] _88_ NOR2X1
XINVX1_24 _137_[6] _89_ vdd gnd INVX1
XNOR2X1_22 vdd _63__bF$buf3 gnd _5_[6] _89_ NOR2X1
XINVX1_25 _137_[7] _90_ vdd gnd INVX1
XNOR2X1_23 vdd _63__bF$buf3 gnd _5_[7] _90_ NOR2X1
XINVX1_26 _136_[0] _91_ vdd gnd INVX1
XOR2X2_1 _92_ hash_array2_0 vdd gnd _61_ OR2X2
XAOI22X1_4 gnd vdd _92_ _63__bF$buf1 _4_[0] _91_ _60_ AOI22X1
XINVX1_27 _136_[1] _93_ vdd gnd INVX1
XAOI21X1_18 gnd vdd _93_ _60_ _4_[1] _61_ AOI21X1
XINVX1_28 _136_[2] _94_ vdd gnd INVX1
XAOI21X1_19 gnd vdd _94_ _60_ _4_[2] _61_ AOI21X1
XINVX1_29 _136_[3] _95_ vdd gnd INVX1
XAOI21X1_20 gnd vdd _95_ _60_ _4_[3] _61_ AOI21X1
XINVX1_30 _136_[4] _96_ vdd gnd INVX1
XAOI21X1_21 gnd vdd _96_ _60_ _4_[4] _61_ AOI21X1
XINVX1_31 _136_[5] _97_ vdd gnd INVX1
XAOI21X1_22 gnd vdd _97_ _60_ _4_[5] _61_ AOI21X1
XINVX1_32 _136_[6] _98_ vdd gnd INVX1
XAOI21X1_23 gnd vdd _98_ _60_ _4_[6] _61_ AOI21X1
XINVX1_33 _136_[7] _99_ vdd gnd INVX1
XAOI21X1_24 gnd vdd _99_ _60_ _4_[7] _61_ AOI21X1
XNAND2X1_3 vdd _100_ gnd start counter[0] NAND2X1
XINVX1_34 _100_ _101_ vdd gnd INVX1
XOAI21X1_21 gnd vdd start counter[0] _102_ reset_bF$buf2 OAI21X1
XNOR2X1_24 vdd _101_ gnd _0_[0] _102_ NOR2X1
XNOR2X1_25 vdd _26__bF$buf3 gnd _103_ _27__bF$buf2 NOR2X1
XNAND2X1_4 vdd _104_ gnd _11_ _100_ NAND2X1
XNAND2X1_5 vdd _105_ gnd counter[1] _101_ NAND2X1
XNAND3X1_17 _104_ vdd gnd reset_bF$buf2 _105_ _106_ NAND3X1
XNOR2X1_26 vdd _103_ gnd _0_[1] _106_ NOR2X1
XNAND2X1_6 vdd _107_ gnd counter[2] counter[1] NAND2X1
XNOR2X1_27 vdd _107_ gnd _108_ _100_ NOR2X1
XINVX1_35 _105_ _109_ vdd gnd INVX1
XOAI21X1_22 gnd vdd _109_ counter[2] _110_ reset_bF$buf2 OAI21X1
XNOR2X1_28 vdd _110_ gnd _0_[2] _108_ NOR2X1
XAND2X2_3 vdd gnd _108_ counter[3] _111_ AND2X2
XOAI21X1_23 gnd vdd _108_ counter[3] _112_ reset_bF$buf1 OAI21X1
XOR2X2_2 _113_ _112_ vdd gnd _111_ OR2X2
XNOR2X1_29 vdd _113_ gnd _0_[3] _103_ NOR2X1
XOAI21X1_24 gnd vdd _111_ counter[4] _114_ reset_bF$buf1 OAI21X1
XAOI21X1_25 gnd vdd counter[4] _111_ _0_[4] _114_ AOI21X1
XAOI21X1_26 gnd vdd counter[4] _111_ _115_ counter[5] AOI21X1
XNAND2X1_7 vdd _116_ gnd counter[3] _108_ NAND2X1
XNAND2X1_8 vdd _117_ gnd counter[5] counter[4] NAND2X1
XOAI21X1_25 gnd vdd _116_ _117_ _118_ reset_bF$buf1 OAI21X1
XNOR2X1_30 vdd _115_ gnd _0_[5] _118_ NOR2X1
XINVX1_36 _117_ _119_ vdd gnd INVX1
XAOI21X1_27 gnd vdd _119_ _111_ _120_ counter[6] AOI21X1
XNAND2X1_9 vdd _121_ gnd counter[6] _119_ NAND2X1
XOAI21X1_26 gnd vdd _116_ _121_ _122_ reset_bF$buf1 OAI21X1
XNOR2X1_31 vdd _120_ gnd _0_[6] _122_ NOR2X1
XOAI21X1_27 gnd vdd _116_ _121_ _123_ counter[7] OAI21X1
XINVX1_37 counter[7] _124_ vdd gnd INVX1
XINVX1_38 _121_ _125_ vdd gnd INVX1
XNAND3X1_18 _111_ vdd gnd _124_ _125_ _126_ NAND3X1
XAOI21X1_28 gnd vdd _123_ _126_ _0_[7] _10__bF$buf0 AOI21X1
XNOR2X1_32 vdd _82_ gnd _127_ _19_ NOR2X1
XOAI21X1_28 gnd vdd start invalid_nonce _128_ reset_bF$buf1 OAI21X1
XNOR2X1_33 vdd _127_ gnd _2_ _128_ NOR2X1
XINVX1_39 micro.counter_inst.ready _129_ vdd gnd INVX1
XOAI21X1_29 gnd vdd _59_ _129_ _130_ _127_ OAI21X1
XAOI21X1_29 gnd vdd _59_ _129_ _131_ _130_ AOI21X1
XOAI21X1_30 gnd vdd start micro.counter_inst.ready _132_ reset_bF$buf1 OAI21X1
XAOI21X1_30 gnd vdd _18__bF$buf3 _131_ _8_ _132_ AOI21X1
XINVX1_40 fail _133_ vdd gnd INVX1
XOAI21X1_31 gnd vdd start loop_limit_inst.stop _134_ reset_bF$buf0 OAI21X1
XAOI21X1_31 gnd vdd _133_ _20__bF$buf2 _9_ _134_ AOI21X1
XBUFX2_1 vdd gnd _135_ finish BUFX2
XBUFX2_2 vdd gnd _136_[0] nonce0[0] BUFX2
XBUFX2_3 vdd gnd _136_[1] nonce0[1] BUFX2
XBUFX2_4 vdd gnd _136_[2] nonce0[2] BUFX2
XBUFX2_5 vdd gnd _136_[3] nonce0[3] BUFX2
XBUFX2_6 vdd gnd _136_[4] nonce0[4] BUFX2
XBUFX2_7 vdd gnd _136_[5] nonce0[5] BUFX2
XBUFX2_8 vdd gnd _136_[6] nonce0[6] BUFX2
XBUFX2_9 vdd gnd _136_[7] nonce0[7] BUFX2
XBUFX2_10 vdd gnd _137_[0] nonce1[0] BUFX2
XBUFX2_11 vdd gnd _137_[1] nonce1[1] BUFX2
XBUFX2_12 vdd gnd _137_[2] nonce1[2] BUFX2
XBUFX2_13 vdd gnd _137_[3] nonce1[3] BUFX2
XBUFX2_14 vdd gnd _137_[4] nonce1[4] BUFX2
XBUFX2_15 vdd gnd _137_[5] nonce1[5] BUFX2
XBUFX2_16 vdd gnd _137_[6] nonce1[6] BUFX2
XBUFX2_17 vdd gnd _137_[7] nonce1[7] BUFX2
XBUFX2_18 vdd gnd _138_[0] nonce2[0] BUFX2
XBUFX2_19 vdd gnd _138_[1] nonce2[1] BUFX2
XBUFX2_20 vdd gnd _138_[2] nonce2[2] BUFX2
XBUFX2_21 vdd gnd _138_[3] nonce2[3] BUFX2
XBUFX2_22 vdd gnd _138_[4] nonce2[4] BUFX2
XBUFX2_23 vdd gnd _138_[5] nonce2[5] BUFX2
XBUFX2_24 vdd gnd _138_[6] nonce2[6] BUFX2
XBUFX2_25 vdd gnd _138_[7] nonce2[7] BUFX2
XBUFX2_26 vdd gnd _139_[0] nonce3[0] BUFX2
XBUFX2_27 vdd gnd _139_[1] nonce3[1] BUFX2
XBUFX2_28 vdd gnd _139_[2] nonce3[2] BUFX2
XBUFX2_29 vdd gnd _139_[3] nonce3[3] BUFX2
XBUFX2_30 vdd gnd _139_[4] nonce3[4] BUFX2
XBUFX2_31 vdd gnd _139_[5] nonce3[5] BUFX2
XBUFX2_32 vdd gnd _139_[6] nonce3[6] BUFX2
XBUFX2_33 vdd gnd _139_[7] nonce3[7] BUFX2
XDFFPOSX1_1 vdd _9_ gnd loop_limit_inst.stop clk_bF$buf9 DFFPOSX1
XDFFPOSX1_2 vdd _8_ gnd micro.counter_inst.ready clk_bF$buf3 DFFPOSX1
XDFFPOSX1_3 vdd _0_[0] gnd counter[0] clk_bF$buf0 DFFPOSX1
XDFFPOSX1_4 vdd _0_[1] gnd counter[1] clk_bF$buf0 DFFPOSX1
XDFFPOSX1_5 vdd _0_[2] gnd counter[2] clk_bF$buf1 DFFPOSX1
XDFFPOSX1_6 vdd _0_[3] gnd counter[3] clk_bF$buf3 DFFPOSX1
XDFFPOSX1_7 vdd _0_[4] gnd counter[4] clk_bF$buf3 DFFPOSX1
XDFFPOSX1_8 vdd _0_[5] gnd counter[5] clk_bF$buf0 DFFPOSX1
XDFFPOSX1_9 vdd _0_[6] gnd counter[6] clk_bF$buf3 DFFPOSX1
XDFFPOSX1_10 vdd _0_[7] gnd counter[7] clk_bF$buf3 DFFPOSX1
XDFFPOSX1_11 vdd _4_[0] gnd _136_[0] clk_bF$buf0 DFFPOSX1
XDFFPOSX1_12 vdd _4_[1] gnd _136_[1] clk_bF$buf0 DFFPOSX1
XDFFPOSX1_13 vdd _4_[2] gnd _136_[2] clk_bF$buf1 DFFPOSX1
XDFFPOSX1_14 vdd _4_[3] gnd _136_[3] clk_bF$buf1 DFFPOSX1
XDFFPOSX1_15 vdd _4_[4] gnd _136_[4] clk_bF$buf1 DFFPOSX1
XDFFPOSX1_16 vdd _4_[5] gnd _136_[5] clk_bF$buf1 DFFPOSX1
XDFFPOSX1_17 vdd _4_[6] gnd _136_[6] clk_bF$buf0 DFFPOSX1
XDFFPOSX1_18 vdd _4_[7] gnd _136_[7] clk_bF$buf1 DFFPOSX1
XDFFPOSX1_19 vdd _5_[0] gnd _137_[0] clk_bF$buf1 DFFPOSX1
XDFFPOSX1_20 vdd _5_[1] gnd _137_[1] clk_bF$buf1 DFFPOSX1
XDFFPOSX1_21 vdd _5_[2] gnd _137_[2] clk_bF$buf6 DFFPOSX1
XDFFPOSX1_22 vdd _5_[3] gnd _137_[3] clk_bF$buf1 DFFPOSX1
XDFFPOSX1_23 vdd _5_[4] gnd _137_[4] clk_bF$buf8 DFFPOSX1
XDFFPOSX1_24 vdd _5_[5] gnd _137_[5] clk_bF$buf2 DFFPOSX1
XDFFPOSX1_25 vdd _5_[6] gnd _137_[6] clk_bF$buf2 DFFPOSX1
XDFFPOSX1_26 vdd _5_[7] gnd _137_[7] clk_bF$buf10 DFFPOSX1
XDFFPOSX1_27 vdd _6_[0] gnd _138_[0] clk_bF$buf0 DFFPOSX1
XDFFPOSX1_28 vdd _6_[1] gnd _138_[1] clk_bF$buf8 DFFPOSX1
XDFFPOSX1_29 vdd _6_[2] gnd _138_[2] clk_bF$buf0 DFFPOSX1
XDFFPOSX1_30 vdd _6_[3] gnd _138_[3] clk_bF$buf0 DFFPOSX1
XDFFPOSX1_31 vdd _6_[4] gnd _138_[4] clk_bF$buf0 DFFPOSX1
XDFFPOSX1_32 vdd _6_[5] gnd _138_[5] clk_bF$buf6 DFFPOSX1
XDFFPOSX1_33 vdd _6_[6] gnd _138_[6] clk_bF$buf1 DFFPOSX1
XDFFPOSX1_34 vdd _6_[7] gnd _138_[7] clk_bF$buf0 DFFPOSX1
XDFFPOSX1_35 vdd _7_[0] gnd _139_[0] clk_bF$buf0 DFFPOSX1
XDFFPOSX1_36 vdd _7_[1] gnd _139_[1] clk_bF$buf1 DFFPOSX1
XDFFPOSX1_37 vdd _7_[2] gnd _139_[2] clk_bF$buf2 DFFPOSX1
XDFFPOSX1_38 vdd _7_[3] gnd _139_[3] clk_bF$buf8 DFFPOSX1
XDFFPOSX1_39 vdd _7_[4] gnd _139_[4] clk_bF$buf6 DFFPOSX1
XDFFPOSX1_40 vdd _7_[5] gnd _139_[5] clk_bF$buf2 DFFPOSX1
XDFFPOSX1_41 vdd _7_[6] gnd _139_[6] clk_bF$buf6 DFFPOSX1
XDFFPOSX1_42 vdd _7_[7] gnd _139_[7] clk_bF$buf6 DFFPOSX1
XDFFPOSX1_43 vdd _1_ gnd _135_ clk_bF$buf3 DFFPOSX1
XDFFPOSX1_44 vdd _3_[0] gnd loop_limit_inst.compare_inst.number0[0] clk_bF$buf7 DFFPOSX1
XDFFPOSX1_45 vdd _3_[1] gnd loop_limit_inst.compare_inst.number0[1] clk_bF$buf3 DFFPOSX1
XDFFPOSX1_46 vdd _3_[2] gnd loop_limit_inst.compare_inst.number0[2] clk_bF$buf11 DFFPOSX1
XDFFPOSX1_47 vdd _3_[3] gnd loop_limit_inst.compare_inst.number0[3] clk_bF$buf11 DFFPOSX1
XDFFPOSX1_48 vdd _3_[4] gnd loop_limit_inst.compare_inst.number0[4] clk_bF$buf6 DFFPOSX1
XDFFPOSX1_49 vdd _3_[5] gnd loop_limit_inst.compare_inst.number0[5] clk_bF$buf11 DFFPOSX1
XDFFPOSX1_50 vdd _3_[6] gnd loop_limit_inst.compare_inst.number0[6] clk_bF$buf11 DFFPOSX1
XDFFPOSX1_51 vdd _3_[7] gnd loop_limit_inst.compare_inst.number0[7] clk_bF$buf11 DFFPOSX1
XDFFPOSX1_52 vdd _3_[8] gnd loop_limit_inst.compare_inst.number0[8] clk_bF$buf7 DFFPOSX1
XDFFPOSX1_53 vdd _3_[9] gnd loop_limit_inst.compare_inst.number0[9] clk_bF$buf7 DFFPOSX1
XDFFPOSX1_54 vdd _3_[10] gnd loop_limit_inst.compare_inst.number0[10] clk_bF$buf11 DFFPOSX1
XDFFPOSX1_55 vdd _3_[11] gnd loop_limit_inst.compare_inst.number0[11] clk_bF$buf11 DFFPOSX1
XDFFPOSX1_56 vdd _3_[12] gnd loop_limit_inst.compare_inst.number0[12] clk_bF$buf4 DFFPOSX1
XDFFPOSX1_57 vdd _3_[13] gnd loop_limit_inst.compare_inst.number0[13] clk_bF$buf7 DFFPOSX1
XDFFPOSX1_58 vdd _3_[14] gnd loop_limit_inst.compare_inst.number0[14] clk_bF$buf4 DFFPOSX1
XDFFPOSX1_59 vdd _3_[15] gnd loop_limit_inst.compare_inst.number0[15] clk_bF$buf7 DFFPOSX1
XDFFPOSX1_60 vdd _2_ gnd invalid_nonce clk_bF$buf3 DFFPOSX1
XINVX1_41 gnd _194_ vdd gnd INVX1
XNAND2X1_10 vdd _195_ gnd target[15] _194_ NAND2X1
XINVX1_42 gnd _196_ vdd gnd INVX1
XNAND2X1_11 vdd _197_ gnd target[14] _196_ NAND2X1
XINVX2_2 vdd gnd _198_ target[15] INVX2
XINVX1_43 target[14] _199_ vdd gnd INVX1
XAOI22X1_5 gnd vdd _199_ gnd _200_ _198_ gnd AOI22X1
XNAND3X1_19 _197_ vdd gnd _195_ _200_ _201_ NAND3X1
XINVX1_44 gnd _202_ vdd gnd INVX1
XINVX1_45 gnd _203_ vdd gnd INVX1
XAOI22X1_6 gnd vdd target[12] _203_ _204_ _202_ target[13] AOI22X1
XINVX1_46 target[13] _205_ vdd gnd INVX1
XNAND2X1_12 vdd _206_ gnd gnd _205_ NAND2X1
XINVX1_47 target[12] _207_ vdd gnd INVX1
XNAND2X1_13 vdd _208_ gnd gnd _207_ NAND2X1
XNAND3X1_20 _208_ vdd gnd _206_ _204_ _209_ NAND3X1
XNOR2X1_34 vdd _209_ gnd _210_ _201_ NOR2X1
XXNOR2X1_1 gnd target[11] gnd vdd _211_ XNOR2X1
XINVX2_3 vdd gnd _212_ target[10] INVX2
XOR2X2_3 _213_ gnd vdd gnd _212_ OR2X2
XNAND2X1_14 vdd _214_ gnd gnd _212_ NAND2X1
XNAND3X1_21 _214_ vdd gnd _213_ _211_ _215_ NAND3X1
XINVX1_48 gnd _216_ vdd gnd INVX1
XINVX1_49 gnd _217_ vdd gnd INVX1
XAOI22X1_7 gnd vdd target[8] _217_ _218_ _216_ target[9] AOI22X1
XINVX1_50 target[9] _219_ vdd gnd INVX1
XNAND2X1_15 vdd _220_ gnd gnd _219_ NAND2X1
XINVX1_51 target[8] _221_ vdd gnd INVX1
XNAND2X1_16 vdd _222_ gnd gnd _221_ NAND2X1
XNAND3X1_22 _222_ vdd gnd _220_ _218_ _223_ NAND3X1
XNOR2X1_35 vdd _215_ gnd _224_ _223_ NOR2X1
XAND2X2_4 vdd gnd _224_ _210_ _225_ AND2X2
XXOR2X1_1 _226_ vdd target[7] gnd gnd XOR2X1
XXOR2X1_2 _227_ vdd gnd target[6] gnd XOR2X1
XNOR2X1_36 vdd _227_ gnd _228_ _226_ NOR2X1
XINVX1_52 gnd _229_ vdd gnd INVX1
XINVX1_53 gnd _230_ vdd gnd INVX1
XAOI22X1_8 gnd vdd target[4] _230_ _231_ _229_ target[5] AOI22X1
XINVX1_54 target[5] _232_ vdd gnd INVX1
XINVX1_55 target[4] _233_ vdd gnd INVX1
XAOI22X1_9 gnd vdd _233_ gnd _234_ _232_ gnd AOI22X1
XAND2X2_5 vdd gnd _231_ _234_ _235_ AND2X2
XNAND2X1_17 vdd _236_ gnd _228_ _235_ NAND2X1
XNOR2X1_37 vdd gnd gnd _237_ target[3] NOR2X1
XINVX1_56 _237_ _238_ vdd gnd INVX1
XNAND2X1_18 vdd _239_ gnd target[3] gnd NAND2X1
XXOR2X1_3 _240_ vdd gnd target[2] gnd XOR2X1
XAOI21X1_32 gnd vdd _238_ _239_ _241_ _240_ AOI21X1
XINVX1_57 gnd _242_ vdd gnd INVX1
XNAND2X1_19 vdd _243_ gnd target[1] _242_ NAND2X1
XNOR2X1_38 vdd _242_ gnd _244_ target[1] NOR2X1
XINVX1_58 hash_array2_0 _245_ vdd gnd INVX1
XNOR2X1_39 vdd _245_ gnd _246_ target[0] NOR2X1
XOAI21X1_32 gnd vdd _244_ _246_ _247_ _243_ OAI21X1
XNAND2X1_20 vdd _248_ gnd _247_ _241_ NAND2X1
XINVX1_59 target[3] _249_ vdd gnd INVX1
XNOR2X1_40 vdd _249_ gnd _250_ gnd NOR2X1
XNAND2X1_21 vdd _251_ gnd gnd _249_ NAND2X1
XINVX1_60 target[2] _252_ vdd gnd INVX1
XNOR2X1_41 vdd _252_ gnd _253_ gnd NOR2X1
XAOI21X1_33 gnd vdd _251_ _253_ _141_ _250_ AOI21X1
XAOI21X1_34 gnd vdd _141_ _248_ _142_ _236_ AOI21X1
XXNOR2X1_2 gnd target[7] gnd vdd _143_ XNOR2X1
XXNOR2X1_3 target[6] gnd gnd vdd _144_ XNOR2X1
XNAND2X1_22 vdd _145_ gnd _143_ _144_ NAND2X1
XOAI22X1_1 gnd vdd gnd _233_ _232_ gnd _146_ OAI22X1
XOAI21X1_33 gnd vdd _229_ target[5] _147_ _146_ OAI21X1
XINVX1_61 target[7] _148_ vdd gnd INVX1
XNOR2X1_42 vdd _148_ gnd _149_ gnd NOR2X1
XINVX1_62 target[6] _150_ vdd gnd INVX1
XNOR2X1_43 vdd _150_ gnd _151_ gnd NOR2X1
XAOI21X1_35 gnd vdd _151_ _143_ _152_ _149_ AOI21X1
XOAI21X1_34 gnd vdd _145_ _147_ _153_ _152_ OAI21X1
XOAI21X1_35 gnd vdd _142_ _153_ _154_ _225_ OAI21X1
XINVX1_63 target[11] _155_ vdd gnd INVX1
XNOR2X1_44 vdd _155_ gnd _156_ gnd NOR2X1
XNOR2X1_45 vdd _212_ gnd _157_ gnd NOR2X1
XAOI21X1_36 gnd vdd _157_ _211_ _158_ _156_ AOI21X1
XOAI22X1_2 gnd vdd gnd _221_ _219_ gnd _159_ OAI22X1
XOAI21X1_36 gnd vdd _216_ target[9] _160_ _159_ OAI21X1
XOAI21X1_37 gnd vdd _215_ _160_ _161_ _158_ OAI21X1
XNOR2X1_46 vdd _202_ gnd _162_ target[13] NOR2X1
XOR2X2_4 _163_ _162_ vdd gnd _204_ OR2X2
XAOI21X1_37 gnd vdd _198_ gnd _164_ _197_ AOI21X1
XOAI21X1_38 gnd vdd _198_ gnd _165_ reset_bF$buf2 OAI21X1
XNOR2X1_47 vdd _164_ gnd _166_ _165_ NOR2X1
XOAI21X1_39 gnd vdd _201_ _163_ _167_ _166_ OAI21X1
XAOI21X1_38 gnd vdd _210_ _161_ _168_ _167_ AOI21X1
XINVX1_64 reset_bF$buf3 _169_ vdd gnd INVX1
XNAND2X1_23 vdd _170_ gnd compare_hash_0.compare_var[0] _169_ NAND2X1
XNAND2X1_24 vdd _171_ gnd _210_ _224_ NAND2X1
XNAND2X1_25 vdd _172_ gnd _231_ _234_ NAND2X1
XNOR2X1_48 vdd _145_ gnd _173_ _172_ NOR2X1
XINVX1_65 _239_ _174_ vdd gnd INVX1
XXNOR2X1_4 target[2] gnd gnd vdd _175_ XNOR2X1
XOAI21X1_40 gnd vdd _237_ _174_ _176_ _175_ OAI21X1
XXNOR2X1_5 target[1] gnd gnd vdd _177_ XNOR2X1
XXNOR2X1_6 target[0] hash_array2_0 gnd vdd _178_ XNOR2X1
XNAND2X1_26 vdd _179_ gnd _177_ _178_ NAND2X1
XNOR2X1_49 vdd _176_ gnd _180_ _179_ NOR2X1
XNAND2X1_27 vdd _181_ gnd _173_ _180_ NAND2X1
XOAI21X1_41 gnd vdd _171_ _181_ _182_ reset_bF$buf3 OAI21X1
XAOI22X1_10 gnd vdd _154_ _168_ _140_[0] _170_ _182_ AOI22X1
XOR2X2_5 _183_ compare_hash_0.compare_var[1] vdd gnd reset_bF$buf3 OR2X2
XAND2X2_6 vdd gnd _182_ _183_ _140_[1] AND2X2
XINVX1_66 compare_hash_0.compare_var[2] _184_ vdd gnd INVX1
XINVX1_67 target[1] _185_ vdd gnd INVX1
XNOR2X1_50 vdd _185_ gnd _186_ gnd NOR2X1
XNAND2X1_28 vdd _187_ gnd gnd _185_ NAND2X1
XINVX1_68 target[0] _188_ vdd gnd INVX1
XNAND2X1_29 vdd _189_ gnd hash_array2_0 _188_ NAND2X1
XAOI21X1_39 gnd vdd _187_ _189_ _190_ _186_ AOI21X1
XOAI21X1_42 gnd vdd _176_ _190_ _191_ _141_ OAI21X1
XAOI21X1_40 gnd vdd _173_ _191_ _192_ _153_ AOI21X1
XOAI21X1_43 gnd vdd _192_ _171_ _193_ _168_ OAI21X1
XOAI21X1_44 gnd vdd reset_bF$buf3 _184_ _140_[2] _193_ OAI21X1
XDFFPOSX1_61 vdd _140_[0] gnd compare_hash_0.compare_var[0] clk_bF$buf4 DFFPOSX1
XDFFPOSX1_62 vdd _140_[1] gnd compare_hash_0.compare_var[1] clk_bF$buf4 DFFPOSX1
XDFFPOSX1_63 vdd _140_[2] gnd compare_hash_0.compare_var[2] clk_bF$buf4 DFFPOSX1
XINVX1_69 gnd _308_ vdd gnd INVX1
XNAND2X1_30 vdd _309_ gnd target[15] _308_ NAND2X1
XINVX1_70 gnd _310_ vdd gnd INVX1
XNAND2X1_31 vdd _311_ gnd target[14] _310_ NAND2X1
XINVX2_4 vdd gnd _312_ target[15] INVX2
XINVX1_71 target[14] _313_ vdd gnd INVX1
XAOI22X1_11 gnd vdd _313_ gnd _314_ _312_ gnd AOI22X1
XNAND3X1_23 _311_ vdd gnd _309_ _314_ _315_ NAND3X1
XINVX1_72 gnd _316_ vdd gnd INVX1
XINVX1_73 gnd _317_ vdd gnd INVX1
XAOI22X1_12 gnd vdd target[12] _317_ _318_ _316_ target[13] AOI22X1
XINVX1_74 target[13] _319_ vdd gnd INVX1
XNAND2X1_32 vdd _320_ gnd gnd _319_ NAND2X1
XINVX1_75 target[12] _321_ vdd gnd INVX1
XNAND2X1_33 vdd _322_ gnd gnd _321_ NAND2X1
XNAND3X1_24 _322_ vdd gnd _320_ _318_ _323_ NAND3X1
XNOR2X1_51 vdd _323_ gnd _324_ _315_ NOR2X1
XXNOR2X1_7 gnd target[11] gnd vdd _325_ XNOR2X1
XINVX2_5 vdd gnd _326_ target[10] INVX2
XOR2X2_6 _327_ gnd vdd gnd _326_ OR2X2
XNAND2X1_34 vdd _328_ gnd gnd _326_ NAND2X1
XNAND3X1_25 _328_ vdd gnd _327_ _325_ _329_ NAND3X1
XINVX1_76 gnd _330_ vdd gnd INVX1
XINVX1_77 gnd _331_ vdd gnd INVX1
XAOI22X1_13 gnd vdd target[8] _331_ _332_ _330_ target[9] AOI22X1
XINVX1_78 target[9] _333_ vdd gnd INVX1
XNAND2X1_35 vdd _334_ gnd gnd _333_ NAND2X1
XINVX1_79 target[8] _335_ vdd gnd INVX1
XNAND2X1_36 vdd _336_ gnd gnd _335_ NAND2X1
XNAND3X1_26 _336_ vdd gnd _334_ _332_ _337_ NAND3X1
XNOR2X1_52 vdd _329_ gnd _338_ _337_ NOR2X1
XAND2X2_7 vdd gnd _338_ _324_ _339_ AND2X2
XXOR2X1_4 _340_ vdd target[7] gnd gnd XOR2X1
XXOR2X1_5 _341_ vdd gnd target[6] gnd XOR2X1
XNOR2X1_53 vdd _341_ gnd _342_ _340_ NOR2X1
XINVX1_80 gnd _343_ vdd gnd INVX1
XINVX1_81 gnd _344_ vdd gnd INVX1
XAOI22X1_14 gnd vdd target[4] _344_ _345_ _343_ target[5] AOI22X1
XINVX1_82 target[5] _346_ vdd gnd INVX1
XINVX1_83 target[4] _347_ vdd gnd INVX1
XAOI22X1_15 gnd vdd _347_ gnd _348_ _346_ gnd AOI22X1
XAND2X2_8 vdd gnd _345_ _348_ _349_ AND2X2
XNAND2X1_37 vdd _350_ gnd _342_ _349_ NAND2X1
XNOR2X1_54 vdd gnd gnd _351_ target[3] NOR2X1
XINVX1_84 _351_ _352_ vdd gnd INVX1
XNAND2X1_38 vdd _353_ gnd target[3] gnd NAND2X1
XXOR2X1_6 _354_ vdd gnd target[2] gnd XOR2X1
XAOI21X1_41 gnd vdd _352_ _353_ _355_ _354_ AOI21X1
XINVX1_85 gnd _356_ vdd gnd INVX1
XNAND2X1_39 vdd _357_ gnd target[1] _356_ NAND2X1
XNOR2X1_55 vdd _356_ gnd _358_ target[1] NOR2X1
XINVX1_86 hash_array2_1 _359_ vdd gnd INVX1
XNOR2X1_56 vdd _359_ gnd _360_ target[0] NOR2X1
XOAI21X1_45 gnd vdd _358_ _360_ _361_ _357_ OAI21X1
XNAND2X1_40 vdd _362_ gnd _361_ _355_ NAND2X1
XINVX1_87 target[3] _363_ vdd gnd INVX1
XNOR2X1_57 vdd _363_ gnd _364_ gnd NOR2X1
XNAND2X1_41 vdd _365_ gnd gnd _363_ NAND2X1
XINVX1_88 target[2] _366_ vdd gnd INVX1
XNOR2X1_58 vdd _366_ gnd _367_ gnd NOR2X1
XAOI21X1_42 gnd vdd _365_ _367_ _255_ _364_ AOI21X1
XAOI21X1_43 gnd vdd _255_ _362_ _256_ _350_ AOI21X1
XXNOR2X1_8 gnd target[7] gnd vdd _257_ XNOR2X1
XXNOR2X1_9 target[6] gnd gnd vdd _258_ XNOR2X1
XNAND2X1_42 vdd _259_ gnd _257_ _258_ NAND2X1
XOAI22X1_3 gnd vdd gnd _347_ _346_ gnd _260_ OAI22X1
XOAI21X1_46 gnd vdd _343_ target[5] _261_ _260_ OAI21X1
XINVX1_89 target[7] _262_ vdd gnd INVX1
XNOR2X1_59 vdd _262_ gnd _263_ gnd NOR2X1
XINVX1_90 target[6] _264_ vdd gnd INVX1
XNOR2X1_60 vdd _264_ gnd _265_ gnd NOR2X1
XAOI21X1_44 gnd vdd _265_ _257_ _266_ _263_ AOI21X1
XOAI21X1_47 gnd vdd _259_ _261_ _267_ _266_ OAI21X1
XOAI21X1_48 gnd vdd _256_ _267_ _268_ _339_ OAI21X1
XINVX1_91 target[11] _269_ vdd gnd INVX1
XNOR2X1_61 vdd _269_ gnd _270_ gnd NOR2X1
XNOR2X1_62 vdd _326_ gnd _271_ gnd NOR2X1
XAOI21X1_45 gnd vdd _271_ _325_ _272_ _270_ AOI21X1
XOAI22X1_4 gnd vdd gnd _335_ _333_ gnd _273_ OAI22X1
XOAI21X1_49 gnd vdd _330_ target[9] _274_ _273_ OAI21X1
XOAI21X1_50 gnd vdd _329_ _274_ _275_ _272_ OAI21X1
XNOR2X1_63 vdd _316_ gnd _276_ target[13] NOR2X1
XOR2X2_7 _277_ _276_ vdd gnd _318_ OR2X2
XAOI21X1_46 gnd vdd _312_ gnd _278_ _311_ AOI21X1
XOAI21X1_51 gnd vdd _312_ gnd _279_ reset_bF$buf2 OAI21X1
XNOR2X1_64 vdd _278_ gnd _280_ _279_ NOR2X1
XOAI21X1_52 gnd vdd _315_ _277_ _281_ _280_ OAI21X1
XAOI21X1_47 gnd vdd _324_ _275_ _282_ _281_ AOI21X1
XINVX1_92 reset_bF$buf3 _283_ vdd gnd INVX1
XNAND2X1_43 vdd _284_ gnd compare_hash_1.compare_var[0] _283_ NAND2X1
XNAND2X1_44 vdd _285_ gnd _324_ _338_ NAND2X1
XNAND2X1_45 vdd _286_ gnd _345_ _348_ NAND2X1
XNOR2X1_65 vdd _259_ gnd _287_ _286_ NOR2X1
XINVX1_93 _353_ _288_ vdd gnd INVX1
XXNOR2X1_10 target[2] gnd gnd vdd _289_ XNOR2X1