*SPEF "IEEE 1481.1999"
*DESIGN "area_sys"
*DATE "20:02:22 Thursday July 15, 2021"
*VENDOR "unknown"
*PROGRAM "qrouter"
*VERSION "unknown"
*DESIGN_FLOW "qflow"
*DIVIDER /
*DELIMITER :
*BUS_DELIMITER <>
*T_UNIT 1 PS
*C_UNIT 1 FF
*R_UNIT 1 OHM
*L_UNIT 1 HENRY

*NAME_MAP
*1 _419_
*2 NOR2X1_70
*3 NAND2X1_52
*4 AND2X2_10
*5 OAI21X1_58
*6 OAI21X1_59
*7 NAND2X1_53
*8 OAI21X1_61
*9 OAI21X1_62
*10 OAI21X1_63
*11 OAI21X1_64
*12 OAI21X1_66
*13 OAI21X1_65
*14 OAI21X1_70
*15 NAND2X1_56
*16 OAI21X1_67
*17 OAI21X1_69
*18 OAI21X1_68
*19 micro_abc_calculation_ints_counter[0]
*20 DFFPOSX1_106
*21 NAND3X1_40
*22 NAND2X1_111
*23 AOI21X1_81
*24 NAND3X1_38
*25 INVX2_15
*26 NAND2X1_121
*27 NAND2X1_122
*28 NAND3X1_45
*29 NOR2X1_129
*30 INVX2_10
*31 NAND3X1_39
*32 NAND3X1_43
*33 OR2X2_22
*34 XNOR2X1_25
*35 NOR2X1_184
*36 micro_abc_calculation_ints_counter[1]
*37 DFFPOSX1_107
*38 XNOR2X1_25
*39 OR2X2_23
*40 NAND3X1_40
*41 NAND2X1_111
*42 AND2X2_24
*43 NAND3X1_39
*44 NAND3X1_44
*45 NAND2X1_127
*46 NAND2X1_121
*47 INVX2_14
*48 INVX2_11
*49 NOR2X1_113
*50 NAND3X1_43
*51 NOR2X1_184
*52 clk_bF_buf11
*53 CLKBUF1_1
*54 DFFPOSX1_86
*55 DFFPOSX1_47
*56 DFFPOSX1_46
*57 DFFPOSX1_49
*58 DFFPOSX1_90
*59 DFFPOSX1_92
*60 DFFPOSX1_54
*61 DFFPOSX1_91
*62 DFFPOSX1_55
*63 DFFPOSX1_51
*64 DFFPOSX1_76
*65 DFFPOSX1_77
*66 DFFPOSX1_50
*67 clk_bF_buf10
*68 CLKBUF1_2
*69 DFFPOSX1_144
*70 DFFPOSX1_146
*71 DFFPOSX1_143
*72 DFFPOSX1_139
*73 DFFPOSX1_140
*74 DFFPOSX1_122
*75 DFFPOSX1_126
*76 DFFPOSX1_138
*77 DFFPOSX1_142
*78 DFFPOSX1_26
*79 DFFPOSX1_141
*80 DFFPOSX1_117
*81 DFFPOSX1_125
*82 clk_bF_buf9
*83 CLKBUF1_3
*84 DFFPOSX1_72
*85 DFFPOSX1_69
*86 DFFPOSX1_71
*87 DFFPOSX1_67
*88 DFFPOSX1_102
*89 DFFPOSX1_101
*90 DFFPOSX1_100
*91 DFFPOSX1_70
*92 DFFPOSX1_87
*93 DFFPOSX1_68
*94 DFFPOSX1_111
*95 DFFPOSX1_121
*96 DFFPOSX1_1
*97 _60_
*98 NAND2X1_2
*99 OAI21X1_17
*100 AOI21X1_21
*101 AOI21X1_22
*102 AOI21X1_24
*103 AOI21X1_19
*104 AOI22X1_3
*105 AOI21X1_20
*106 AOI21X1_23
*107 AOI21X1_18
*108 AOI22X1_1
*109 AOI21X1_17
*110 AOI22X1_2
*111 AOI22X1_4
*112 _822_
*113 INVX8_3
*114 AOI21X1_97
*115 AOI21X1_96
*116 AOI21X1_93
*117 AOI21X1_92
*118 AOI21X1_89
*119 AOI21X1_94
*120 AOI21X1_90
*121 AOI21X1_91
*122 AOI21X1_103
*123 AOI21X1_95
*124 AOI21X1_99
*125 AOI21X1_98
*126 NOR3X1_6
*127 clk
*128 CLKBUF1_6
*129 CLKBUF1_3
*130 CLKBUF1_4
*131 CLKBUF1_2
*132 CLKBUF1_5
*133 CLKBUF1_9
*134 CLKBUF1_7
*135 CLKBUF1_10
*136 CLKBUF1_12
*137 CLKBUF1_11
*138 CLKBUF1_8
*139 CLKBUF1_1
*140 clk_bF_buf8
*141 CLKBUF1_4
*142 DFFPOSX1_103
*143 DFFPOSX1_23
*144 DFFPOSX1_38
*145 DFFPOSX1_145
*146 DFFPOSX1_120
*147 DFFPOSX1_115
*148 DFFPOSX1_104
*149 DFFPOSX1_116
*150 DFFPOSX1_107
*151 DFFPOSX1_112
*152 DFFPOSX1_118
*153 DFFPOSX1_28
*154 clk_bF_buf7
*155 CLKBUF1_5
*156 DFFPOSX1_44
*157 DFFPOSX1_53
*158 DFFPOSX1_83
*159 DFFPOSX1_59
*160 DFFPOSX1_99
*161 DFFPOSX1_97
*162 DFFPOSX1_98
*163 DFFPOSX1_52
*164 DFFPOSX1_94
*165 DFFPOSX1_95
*166 DFFPOSX1_57
*167 DFFPOSX1_93
*168 clk_bF_buf6
*169 CLKBUF1_6
*170 DFFPOSX1_89
*171 DFFPOSX1_48
*172 DFFPOSX1_88
*173 DFFPOSX1_74
*174 DFFPOSX1_73
*175 DFFPOSX1_78
*176 DFFPOSX1_75
*177 DFFPOSX1_42
*178 DFFPOSX1_41
*179 DFFPOSX1_21
*180 DFFPOSX1_39
*181 DFFPOSX1_32
*182 clk_bF_buf5
*183 CLKBUF1_7
*184 DFFPOSX1_113
*185 DFFPOSX1_108
*186 DFFPOSX1_124
*187 DFFPOSX1_106
*188 DFFPOSX1_114
*189 DFFPOSX1_109
*190 DFFPOSX1_110
*191 DFFPOSX1_128
*192 DFFPOSX1_127
*193 DFFPOSX1_105
*194 DFFPOSX1_129
*195 DFFPOSX1_123
*196 clk_bF_buf4
*197 CLKBUF1_8
*198 DFFPOSX1_82
*199 DFFPOSX1_58
*200 DFFPOSX1_62
*201 DFFPOSX1_56
*202 DFFPOSX1_96
*203 DFFPOSX1_80
*204 DFFPOSX1_63
*205 DFFPOSX1_66
*206 DFFPOSX1_64
*207 DFFPOSX1_61
*208 DFFPOSX1_79
*209 DFFPOSX1_65
*210 clk_bF_buf3
*211 CLKBUF1_9
*212 DFFPOSX1_2
*213 DFFPOSX1_45
*214 DFFPOSX1_119
*215 DFFPOSX1_85
*216 DFFPOSX1_84
*217 DFFPOSX1_81
*218 DFFPOSX1_10
*219 DFFPOSX1_6
*220 DFFPOSX1_7
*221 DFFPOSX1_60
*222 DFFPOSX1_43
*223 DFFPOSX1_9
*224 clk_bF_buf2
*225 CLKBUF1_10
*226 DFFPOSX1_137
*227 DFFPOSX1_136
*228 DFFPOSX1_37
*229 DFFPOSX1_25
*230 DFFPOSX1_130
*231 DFFPOSX1_40
*232 DFFPOSX1_131
*233 DFFPOSX1_132
*234 DFFPOSX1_135
*235 DFFPOSX1_134
*236 DFFPOSX1_133
*237 DFFPOSX1_24
*238 clk_bF_buf1
*239 CLKBUF1_11
*240 DFFPOSX1_5
*241 DFFPOSX1_22
*242 DFFPOSX1_14
*243 DFFPOSX1_19
*244 DFFPOSX1_15
*245 DFFPOSX1_33
*246 DFFPOSX1_36
*247 DFFPOSX1_147
*248 DFFPOSX1_13
*249 DFFPOSX1_20
*250 DFFPOSX1_16
*251 DFFPOSX1_18
*252 clk_bF_buf0
*253 CLKBUF1_12
*254 DFFPOSX1_8
*255 DFFPOSX1_27
*256 DFFPOSX1_12
*257 DFFPOSX1_34
*258 DFFPOSX1_11
*259 DFFPOSX1_29
*260 DFFPOSX1_35
*261 DFFPOSX1_30
*262 DFFPOSX1_17
*263 DFFPOSX1_31
*264 DFFPOSX1_4
*265 DFFPOSX1_3
*266 micro_abc_calculation_ints_counter[2]
*267 DFFPOSX1_108
*268 AND2X2_24
*269 NAND3X1_39
*270 NAND3X1_41
*271 INVX1_196
*272 NOR2X1_116
*273 NOR2X1_124
*274 INVX1_150
*275 INVX1_185
*276 NAND3X1_40
*277 OR2X2_23
*278 NAND2X1_131
*279 NOR2X1_185
*280 start
*281 OAI21X1_21
*282 NAND2X1_3
*283 INVX1_222
*284 OAI21X1_28
*285 OAI21X1_30
*286 OAI21X1_18
*287 OAI21X1_19
*288 OAI21X1_31
*289 OAI21X1_20
*290 OAI21X1_17
*291 NOR2X1_2
*292 micro_abc_calculation_ints_counter[3]
*293 DFFPOSX1_109
*294 INVX2_13
*295 NAND3X1_41
*296 NAND3X1_42
*297 INVX1_149
*298 NOR2X1_120
*299 NOR2X1_124
*300 NOR2X1_185
*301 INVX1_197
*302 OR2X2_22
*303 NAND2X1_114
*304 AND2X2_25
*305 nonce_delay
*306 DFFPOSX1_138
*307 OAI21X1_158
*308 XNOR2X1_26
*309 INVX4_5
*310 OAI21X1_151
*311 NAND2X1_144
*312 OAI21X1_156
*313 NOR2X1_198
*314 NAND2X1_145
*315 NOR2X1_194
*316 OAI21X1_162
*317 _61_
*318 NOR2X1_2
*319 AOI21X1_21
*320 AOI21X1_22
*321 AOI21X1_24
*322 AOI21X1_19
*323 AOI21X1_20
*324 AOI21X1_23
*325 OR2X2_1
*326 AOI21X1_18
*327 AOI21X1_17
*328 _583__bF_buf6
*329 BUFX4_30
*330 NOR2X1_160
*331 NAND2X1_107
*332 OAI21X1_125
*333 AND2X2_21
*334 NOR2X1_169
*335 NAND2X1_109
*336 AND2X2_22
*337 NOR2X1_171
*338 reset_bF_buf5
*339 BUFX4_41
*340 INVX1_189
*341 AND2X2_29
*342 OAI21X1_85
*343 INVX1_205
*344 OAI21X1_71
*345 BUFX2_34
*346 OAI21X1_134
*347 AND2X2_27
*348 reset_bF_buf4
*349 BUFX4_42
*350 OAI21X1_135
*351 OAI21X1_131
*352 INVX8_3
*353 NAND2X1_137
*354 NAND2X1_115
*355 NAND2X1_138
*356 OAI21X1_132
*357 NAND2X1_110
*358 reset_bF_buf3
*359 BUFX4_43
*360 OR2X2_5
*361 OR2X2_8
*362 OAI21X1_44
*363 INVX1_92
*364 OAI21X1_54
*365 OAI21X1_41
*366 OAI21X1_57
*367 INVX1_64
*368 reset_bF_buf2
*369 BUFX4_44
*370 OAI21X1_38
*371 NAND2X1_2
*372 OAI21X1_22
*373 NAND3X1_17
*374 OAI21X1_21
*375 AOI22X1_3
*376 OAI21X1_164
*377 OAI21X1_51
*378 loop_limit_inst_compare_inst_number0[1]
*379 DFFPOSX1_45
*380 OAI21X1_2
*381 AOI21X1_51
*382 INVX1_98
*383 NAND3X1_27
*384 INVX1_137
*385 NAND2X1_76
*386 NOR2X1_111
*387 XNOR2X1_17
*388 target[1]
*389 NAND2X1_39
*390 NOR2X1_55
*391 XNOR2X1_11
*392 INVX1_95
*393 NOR2X1_38
*394 NAND2X1_19
*395 XNOR2X1_5
*396 INVX1_67
*397 nonce_2_1
*398 DFFPOSX1_143
*399 XOR2X1_12
*400 NAND2X1_125
*401 NAND2X1_126
*402 NAND2X1_100
*403 NOR2X1_143
*404 OAI21X1_149
*405 NOR2X1_191
*406 AOI22X1_23
*407 _834_
*408 NAND3X1_42
*409 NOR2X1_179
*410 OAI21X1_140
*411 NOR2X1_178
*412 OAI21X1_139
*413 NOR2X1_180
*414 OAI21X1_141
*415 NOR2X1_177
*416 OAI21X1_138
*417 _850_
*418 NAND2X1_131
*419 OAI21X1_142
*420 NOR2X1_181
*421 NOR2X1_183
*422 OAI21X1_144
*423 OAI21X1_143
*424 NOR2X1_182
*425 OAI21X1_145
*426 INVX1_198
*427 _583_
*428 NOR2X1_127
*429 BUFX4_34
*430 BUFX4_35
*431 BUFX4_32
*432 BUFX4_33
*433 BUFX4_31
*434 BUFX4_30
*435 BUFX4_36
*436 _583__bF_buf5
*437 BUFX4_31
*438 AND2X2_19
*439 NOR2X1_165
*440 AND2X2_20
*441 NOR2X1_163
*442 NAND2X1_108
*443 OAI21X1_121
*444 XNOR2X1_24
*445 _583__bF_buf4
*446 BUFX4_32
*447 OR2X2_18
*448 AND2X2_17
*449 NAND2X1_95
*450 NAND2X1_94
*451 NOR2X1_134
*452 NOR2X1_137
*453 OAI21X1_102
*454 _583__bF_buf3
*455 BUFX4_33
*456 NAND2X1_100
*457 NOR2X1_146
*458 NOR2X1_141
*459 NAND2X1_98
*460 AND2X2_18
*461 NOR2X1_138
*462 NOR2X1_143
*463 _583__bF_buf2
*464 BUFX4_34
*465 NOR2X1_128
*466 NAND2X1_87
*467 XNOR2X1_21
*468 XNOR2X1_20
*469 NOR2X1_131
*470 OAI21X1_94
*471 NAND2X1_90
*472 _583__bF_buf1
*473 BUFX4_35
*474 XNOR2X1_19
*475 NAND2X1_92
*476 NAND2X1_105
*477 INVX4_1
*478 NOR2X1_158
*479 NAND2X1_104
*480 NOR2X1_157
*481 _583__bF_buf0
*482 BUFX4_36
*483 OAI21X1_129
*484 AND2X2_23
*485 NAND2X1_102
*486 NAND2X1_106
*487 OAI21X1_117
*488 XNOR2X1_22
*489 XNOR2X1_23
*490 reset_bF_buf1
*491 BUFX4_45
*492 OAI21X1_26
*493 OAI21X1_25
*494 OAI21X1_24
*495 OAI21X1_28
*496 OAI21X1_78
*497 OAI21X1_23
*498 OAI21X1_30
*499 reset_bF_buf0
*500 BUFX4_46
*501 INVX1_97
*502 OAI21X1_31
*503 INVX8_4
*504 OR2X2_17
*505 OAI21X1_84
*506 INVX1_144
*507 OAI21X1_81
*508 loop_limit_inst_compare_inst_number0[0]
*509 DFFPOSX1_44
*510 OAI21X1_1
*511 INVX2_6
*512 AOI21X1_51
*513 NAND3X1_27
*514 NAND2X1_77
*515 INVX1_138
*516 XNOR2X1_18
*517 loop_limit_inst_compare_inst_number0[5]
*518 DFFPOSX1_49
*519 OAI21X1_6
*520 NAND3X1_28
*521 NAND2X1_54
*522 OAI21X1_61
*523 INVX1_132
*524 OAI22X1_5
*525 AOI22X1_21
*526 loop_limit_inst_compare_inst_number0[9]
*527 DFFPOSX1_53
*528 OAI21X1_10
*529 OAI21X1_65
*530 NAND2X1_55
*531 NAND3X1_29
*532 NAND2X1_63
*533 INVX1_128
*534 OAI22X1_6
*535 loop_limit_inst_compare_inst_number0[13]
*536 DFFPOSX1_57
*537 NAND3X1_30
*538 OAI21X1_14
*539 NAND2X1_60
*540 INVX1_124
*541 AOI21X1_54
*542 AOI21X1_53
*543 OAI21X1_69
*544 hash_array2_0
*545 DFFPOSX1_111
*546 INVX1_194
*547 OR2X2_1
*548 OAI21X1_20
*549 NAND2X1_29
*550 XNOR2X1_6
*551 INVX1_58
*552 NAND2X1_118
*553 nonce_2_2
*554 DFFPOSX1_139
*555 NOR2X1_190
*556 XOR2X1_11
*557 NAND2X1_123
*558 NOR2X1_146
*559 AND2X2_18
*560 OAI21X1_161
*561 OAI21X1_162
*562 _819_
*563 INVX4_2
*564 NAND3X1_42
*565 NAND3X1_45
*566 NAND3X1_41
*567 NAND3X1_44
*568 NAND3X1_43
*569 NAND2X1_135
*570 NAND3X1_47
*571 _820_
*572 NAND3X1_41
*573 OAI21X1_135
*574 NOR2X1_192
*575 OAI21X1_150
*576 NOR2X1_175
*577 OAI21X1_136
*578 OAI21X1_137
*579 NOR2X1_176
*580 _918_
*581 INVX4_4
*582 OAI21X1_161
*583 OAI21X1_163
*584 NAND2X1_148
*585 OAI21X1_151
*586 NOR2X1_195
*587 OAI21X1_154
*588 AOI21X1_106
*589 _929_
*590 INVX4_5
*591 NOR2X1_199
*592 OAI21X1_153
*593 OAI21X1_155
*594 AND2X2_34
*595 OAI21X1_154
*596 AOI21X1_107
*597 NOR2X1_204
*598 _10__bF_buf3
*599 BUFX4_1
*600 AOI21X1_16
*601 AOI21X1_15
*602 AOI21X1_14
*603 AOI21X1_13
*604 OAI21X1_17
*605 NOR2X1_2
*606 _63__bF_buf3
*607 BUFX4_37
*608 NOR2X1_22
*609 NOR2X1_21
*610 NOR2X1_20
*611 NOR2X1_5
*612 NOR2X1_10
*613 NOR2X1_23
*614 _63__bF_buf2
*615 BUFX4_38
*616 NOR2X1_17
*617 NOR2X1_18
*618 NOR2X1_8
*619 NOR2X1_6
*620 NOR2X1_14
*621 NOR2X1_9
*622 _63__bF_buf1
*623 BUFX4_39
*624 AOI22X1_4
*625 AOI22X1_2
*626 AOI22X1_1
*627 NOR2X1_4
*628 NOR2X1_11
*629 NOR2X1_7
*630 _63__bF_buf0
*631 BUFX4_40
*632 NOR2X1_3
*633 NOR2X1_19
*634 NOR2X1_13
*635 NOR2X1_12
*636 NOR2X1_16
*637 NOR2X1_15
*638 reset
*639 BUFX4_44
*640 BUFX4_43
*641 BUFX4_42
*642 BUFX4_45
*643 BUFX4_46
*644 BUFX4_41
*645 loop_limit_inst_compare_inst_number0[2]
*646 DFFPOSX1_46
*647 OAI21X1_3
*648 NOR2X1_102
*649 XNOR2X1_16
*650 XOR2X1_9
*651 NAND3X1_27
*652 AOI21X1_51
*653 loop_limit_inst_compare_inst_number0[3]
*654 DFFPOSX1_47
*655 OAI21X1_4
*656 INVX2_7
*657 NAND2X1_69
*658 NOR2X1_101
*659 NAND2X1_66
*660 NOR2X1_98
*661 loop_limit_inst_compare_inst_number0[6]
*662 DFFPOSX1_50
*663 NAND3X1_28
*664 OAI21X1_62
*665 OAI21X1_7
*666 XNOR2X1_15
*667 NOR2X1_104
*668 XOR2X1_8
*669 loop_limit_inst_compare_inst_number0[7]
*670 DFFPOSX1_51
*671 INVX1_102
*672 OAI21X1_63
*673 OAI21X1_8
*674 XOR2X1_7
*675 XNOR2X1_14
*676 NOR2X1_103
*677 loop_limit_inst_compare_inst_number0[8]
*678 DFFPOSX1_52
*679 OAI21X1_64
*680 INVX1_103
*681 INVX1_129
*682 OAI22X1_6
*683 NAND2X1_64
*684 OAI21X1_9
*685 loop_limit_inst_compare_inst_number0[10]
*686 DFFPOSX1_54
*687 OAI21X1_66
*688 OAI21X1_11
*689 NAND3X1_29
*690 OR2X2_15
*691 NAND2X1_62
*692 NOR2X1_106
*693 loop_limit_inst_compare_inst_number0[15]
*694 DFFPOSX1_59
*695 INVX1_121
*696 INVX1_108
*697 OAI21X1_16
*698 OAI21X1_78
*699 AOI21X1_62
*700 AOI22X1_17
*701 hash_array2_1
*702 DFFPOSX1_112
*703 NAND2X1_117
*704 INVX1_193
*705 OAI21X1_19
*706 XNOR2X1_12
*707 INVX1_86
*708 NAND2X1_49
*709 _111_
*710 AND2X2_3
*711 OR2X2_2
*712 NAND3X1_18
*713 AOI21X1_25
*714 OAI21X1_24
*715 AOI21X1_26
*716 AOI21X1_27
*717 micro_counter_inst_ready
*718 DFFPOSX1_2
*719 OAI21X1_30
*720 INVX1_39
*721 NAND2X1_110
*722 AND2X2_30
*723 NAND2X1_119
*724 NAND2X1_120
*725 target[13]
*726 AOI22X1_6
*727 NOR2X1_46
*728 INVX1_46
*729 NOR2X1_63
*730 AOI22X1_12
*731 INVX1_74
*732 target[9]
*733 OAI21X1_49
*734 OAI21X1_36
*735 INVX1_50
*736 AOI22X1_7
*737 AOI22X1_13
*738 INVX1_78
*739 target[7]
*740 INVX1_89
*741 XNOR2X1_8
*742 XOR2X1_4
*743 XNOR2X1_2
*744 XOR2X1_1
*745 INVX1_61
*746 target[6]
*747 XNOR2X1_9
*748 INVX1_62
*749 XOR2X1_5
*750 XNOR2X1_3
*751 XOR2X1_2
*752 INVX1_90
*753 target[5]
*754 INVX1_82
*755 OAI21X1_46
*756 AOI22X1_14
*757 INVX1_54
*758 OAI21X1_33
*759 AOI22X1_8
*760 target[3]
*761 NAND2X1_38
*762 NOR2X1_54
*763 NAND2X1_18
*764 INVX1_59
*765 NOR2X1_37
*766 INVX1_87
*767 target[2]
*768 INVX1_60
*769 XNOR2X1_4
*770 XOR2X1_3
*771 XOR2X1_6
*772 INVX1_88
*773 XNOR2X1_10
*774 target[0]
*775 XNOR2X1_12
*776 INVX1_96
*777 XNOR2X1_6
*778 INVX1_68
*779 NOR2X1_56
*780 NOR2X1_39
*781 _628_
*782 INVX4_1
*783 NOR2X1_147
*784 AOI21X1_73
*785 OAI21X1_109
*786 OAI21X1_98
*787 NOR2X1_139
*788 NOR2X1_135
*789 nonce_2_3
*790 DFFPOSX1_140
*791 INVX1_170
*792 AOI21X1_110
*793 AND2X2_34
*794 NOR2X1_188
*795 XOR2X1_10
*796 NAND2X1_140
*797 _874_
*798 INVX4_3
*799 NOR2X1_189
*800 OAI21X1_148
*801 NOR2X1_186
*802 NOR2X1_187
*803 OAI21X1_147
*804 OAI21X1_146
*805 _914_
*806 NOR2X1_193
*807 AND2X2_32
*808 NAND2X1_142
*809 OAI21X1_163
*810 INVX2_17
*811 AOI21X1_106
*812 OAI21X1_162
*813 _10__bF_buf2
*814 BUFX4_2
*815 AOI21X1_10
*816 AOI21X1_4
*817 AOI21X1_3
*818 AOI21X1_5
*819 AOI21X1_6
*820 _10__bF_buf1
*821 BUFX4_3
*822 AOI21X1_9
*823 AOI21X1_11
*824 AOI21X1_12
*825 AOI21X1_7
*826 AOI21X1_8
*827 _10__bF_buf0
*828 BUFX4_4
*829 OAI21X1_19
*830 AOI21X1_1
*831 AOI21X1_2
*832 OAI21X1_18
*833 AOI21X1_28
*834 _27__bF_buf3
*835 BUFX4_5
*836 OAI21X1_3
*837 OAI21X1_5
*838 OAI21X1_6
*839 OAI21X1_7
*840 OAI21X1_8
*841 _417__bF_buf3
*842 BUFX4_9
*843 OR2X2_13
*844 OR2X2_12
*845 OR2X2_14
*846 NOR2X1_93
*847 NOR2X1_91
*848 _18__bF_buf3
*849 BUFX4_13
*850 NAND3X1_16
*851 AOI21X1_30
*852 NAND3X1_4
*853 NAND3X1_49
*854 NAND3X1_2
*855 micro_abc_calculation_ints_counter[4]
*856 DFFPOSX1_110
*857 BUFX4_18
*858 BUFX4_19
*859 BUFX4_20
*860 BUFX4_21
*861 BUFX4_17
*862 micro_abc_calculation_ints_counter[4_bF_buf4]
*863 BUFX4_17
*864 NOR3X1_4
*865 NOR2X1_122
*866 NOR2X1_133
*867 NOR2X1_145
*868 NOR2X1_114
*869 micro_abc_calculation_ints_counter[4_bF_buf3]
*870 BUFX4_18
*871 INVX1_186
*872 AOI21X1_72
*873 NOR2X1_136
*874 NOR2X1_115
*875 NOR2X1_123
*876 micro_abc_calculation_ints_counter[4_bF_buf2]
*877 BUFX4_19
*878 NAND2X1_114
*879 NAND2X1_103
*880 NOR2X1_125
*881 NOR2X1_117
*882 OAI21X1_101
*883 micro_abc_calculation_ints_counter[4_bF_buf1]
*884 BUFX4_20
*885 OAI21X1_130
*886 NOR2X1_118
*887 NOR2X1_140
*888 NOR2X1_130
*889 OAI21X1_133
*890 micro_abc_calculation_ints_counter[4_bF_buf0]
*891 BUFX4_21
*892 INVX4_2
*893 INVX8_2
*894 NOR2X1_142
*895 NOR2X1_121
*896 AND2X2_25
*897 _26__bF_buf3
*898 BUFX4_22
*899 NOR2X1_25
*900 OAI21X1_13
*901 OAI21X1_14
*902 OAI21X1_15
*903 OAI21X1_16
*904 _20__bF_buf3
*905 BUFX4_26
*906 NAND3X1_9
*907 NAND3X1_8
*908 NAND3X1_11
*909 NAND3X1_12
*910 NAND3X1_13
*911 _20__bF_buf2
*912 BUFX4_27
*913 NAND3X1_4
*914 NAND3X1_49
*915 NAND3X1_2
*916 AOI21X1_31
*917 NAND3X1_10
*918 _591__bF_buf3
*919 BUFX4_47
*920 NOR2X1_151
*921 NOR2X1_162
*922 NOR2X1_150
*923 OAI21X1_124
*924 NOR2X1_161
*925 _591__bF_buf2
*926 BUFX4_48
*927 NOR2X1_152
*928 NOR2X1_166
*929 NOR2X1_149
*930 NOR2X1_168
*931 OAI21X1_128
*932 counter[3]
*933 DFFPOSX1_6
*934 AND2X2_2
*935 NAND2X1_152
*936 NAND2X1_7
*937 AND2X2_3
*938 OAI21X1_23
*939 loop_limit_inst_compare_inst_number0[4]
*940 DFFPOSX1_48
*941 INVX1_99
*942 OAI21X1_5
*943 INVX1_133
*944 OAI22X1_5
*945 AOI22X1_21
*946 loop_limit_inst_compare_inst_number0[11]
*947 DFFPOSX1_55
*948 XNOR2X1_13
*949 NOR2X1_105
*950 INVX1_106
*951 OAI21X1_67
*952 OAI21X1_12
*953 loop_limit_inst_compare_inst_number0[12]
*954 DFFPOSX1_56
*955 OAI21X1_13
*956 NAND2X1_61
*957 INVX1_125
*958 OAI21X1_68
*959 INVX1_107
*960 loop_limit_inst_compare_inst_number0[14]
*961 DFFPOSX1_58
*962 OAI21X1_15
*963 AOI22X1_17
*964 INVX1_122
*965 NAND3X1_30
*966 AOI21X1_54
*967 counter[4]
*968 DFFPOSX1_7
*969 AOI21X1_25
*970 AOI21X1_26
*971 NAND2X1_8
*972 NOR2X1_207
*973 OAI21X1_24
*974 _423_
*975 NAND3X1_27
*976 NAND2X1_52
*977 OAI21X1_59
*978 AOI21X1_52
*979 OAI21X1_60
*980 NOR3X1_1
*981 _390_
*982 NOR3X1_3
*983 NOR2X1_82
*984 OAI21X1_69
*985 AOI21X1_53
*986 AOI21X1_54
*987 NAND3X1_30
*988 loop_limit_inst_compare_inst_number1[1]
*989 DFFPOSX1_69
*990 XNOR2X1_17
*991 INVX1_110
*992 INVX1_147
*993 NAND2X1_67
*994 NOR2X1_99
*995 block7[0]
*996 OAI21X1_149
*997 XOR2X1_13
*998 INVX1_163
*999 NOR2X1_134
*1000 NOR2X1_191
*1001 nonce_2_0
*1002 DFFPOSX1_142
*1003 AOI21X1_104
*1004 XOR2X1_13
*1005 NOR2X1_141
*1006 NAND2X1_98
*1007 NAND2X1_128
*1008 _771_
*1009 NAND2X1_110
*1010 AOI21X1_83
*1011 AOI21X1_81
*1012 AOI21X1_82
*1013 AOI21X1_84
*1014 NOR3X1_5
*1015 _10_
*1016 INVX8_4
*1017 BUFX4_2
*1018 BUFX4_3
*1019 BUFX4_1
*1020 BUFX4_4
*1021 _27_
*1022 INVX8_1
*1023 BUFX4_6
*1024 BUFX4_8
*1025 BUFX4_7
*1026 BUFX4_5
*1027 _27__bF_buf2
*1028 BUFX4_6
*1029 OAI21X1_15
*1030 OAI21X1_14
*1031 OAI21X1_13
*1032 NOR2X1_25
*1033 _27__bF_buf1
*1034 BUFX4_7
*1035 OAI21X1_4
*1036 OAI21X1_10
*1037 OAI21X1_1
*1038 OAI21X1_2
*1039 _27__bF_buf0
*1040 BUFX4_8
*1041 OAI21X1_16
*1042 OAI21X1_9
*1043 OAI21X1_11
*1044 OAI21X1_12
*1045 _417_
*1046 NOR2X1_69
*1047 BUFX4_12
*1048 BUFX4_9
*1049 BUFX4_10
*1050 BUFX4_11
*1051 _417__bF_buf2
*1052 BUFX4_10
*1053 NOR2X1_87
*1054 NOR2X1_86
*1055 NOR2X1_85
*1056 OR2X2_10
*1057 _417__bF_buf1
*1058 BUFX4_11
*1059 NOR2X1_84
*1060 NAND2X1_51
*1061 NOR2X1_92
*1062 NOR2X1_94
*1063 _417__bF_buf0
*1064 BUFX4_12
*1065 NOR2X1_90
*1066 NOR2X1_89
*1067 NOR2X1_88
*1068 OR2X2_11
*1069 _18_
*1070 NOR3X1_8
*1071 BUFX4_14
*1072 BUFX4_16
*1073 BUFX4_15
*1074 BUFX4_13
*1075 _18__bF_buf2
*1076 BUFX4_14
*1077 NAND3X1_15
*1078 NAND3X1_14
*1079 NAND3X1_12
*1080 NAND3X1_13
*1081 _18__bF_buf1
*1082 BUFX4_15
*1083 NAND3X1_10
*1084 NAND3X1_3
*1085 NAND3X1_5
*1086 NAND3X1_6
*1087 _18__bF_buf0
*1088 BUFX4_16
*1089 NAND3X1_9
*1090 NAND3X1_7
*1091 NAND3X1_8
*1092 NAND3X1_11
*1093 _26_
*1094 NAND3X1_1
*1095 BUFX4_22
*1096 BUFX4_25
*1097 BUFX4_24
*1098 BUFX4_23
*1099 _26__bF_buf2
*1100 BUFX4_23
*1101 OAI21X1_10
*1102 OAI21X1_4
*1103 OAI21X1_1
*1104 OAI21X1_2
*1105 _26__bF_buf1
*1106 BUFX4_24
*1107 OAI21X1_5
*1108 OAI21X1_3
*1109 OAI21X1_6
*1110 OAI21X1_7
*1111 _26__bF_buf0
*1112 BUFX4_25
*1113 OAI21X1_9
*1114 OAI21X1_11
*1115 OAI21X1_12
*1116 OAI21X1_8
*1117 _20_
*1118 NOR2X1_209
*1119 BUFX4_29
*1120 BUFX4_28
*1121 BUFX4_27
*1122 BUFX4_26
*1123 _20__bF_buf1
*1124 BUFX4_28
*1125 NAND3X1_7
*1126 NAND3X1_6
*1127 NAND3X1_5
*1128 NAND3X1_3
*1129 _20__bF_buf0
*1130 BUFX4_29
*1131 NAND3X1_15
*1132 NAND3X1_14
*1133 INVX8_1
*1134 NAND3X1_16
*1135 _63_
*1136 OAI21X1_17
*1137 BUFX4_40
*1138 BUFX4_38
*1139 BUFX4_39
*1140 BUFX4_37
*1141 _591_
*1142 INVX8_2
*1143 BUFX4_48
*1144 BUFX4_47
*1145 BUFX4_49
*1146 BUFX4_50
*1147 _591__bF_buf1
*1148 BUFX4_49
*1149 NOR2X1_153
*1150 NOR2X1_154
*1151 NOR2X1_159
*1152 NOR2X1_155
*1153 _591__bF_buf0
*1154 BUFX4_50
*1155 NAND2X1_89
*1156 OR2X2_19
*1157 NOR2X1_156
*1158 NAND2X1_91
*1159 counter[0]
*1160 DFFPOSX1_3
*1161 NAND3X1_48
*1162 NAND2X1_1
*1163 NAND2X1_3
*1164 OAI21X1_21
*1165 counter[1]
*1166 DFFPOSX1_4
*1167 INVX1_220
*1168 NOR2X1_1
*1169 NAND2X1_5
*1170 NAND2X1_6
*1171 _108_
*1172 NOR2X1_27
*1173 NOR2X1_28
*1174 AND2X2_3
*1175 NAND2X1_7
*1176 OAI21X1_23
*1177 target[15]
*1178 NAND2X1_30
*1179 NAND2X1_10
*1180 INVX2_2
*1181 INVX2_4
*1182 target[14]
*1183 NAND2X1_31
*1184 INVX1_43
*1185 NAND2X1_11
*1186 INVX1_71
*1187 target[12]
*1188 AOI22X1_6
*1189 INVX1_75
*1190 AOI22X1_12
*1191 INVX1_47
*1192 target[11]
*1193 XNOR2X1_7
*1194 INVX1_91
*1195 XNOR2X1_1
*1196 INVX1_63
*1197 target[8]
*1198 AOI22X1_7
*1199 INVX1_51
*1200 AOI22X1_13
*1201 INVX1_79
*1202 target[4]
*1203 AOI22X1_8
*1204 AOI22X1_14
*1205 INVX1_83
*1206 INVX1_55
*1207 _425_
*1208 INVX2_7
*1209 OAI21X1_59
*1210 AOI21X1_52
*1211 OAI21X1_60
*1212 NOR3X1_1
*1213 _428_
*1214 NOR3X1_1
*1215 NOR2X1_72
*1216 OAI21X1_61
*1217 NAND2X1_54
*1218 NAND3X1_28
*1219 _378_
*1220 NOR3X1_2
*1221 NOR2X1_77
*1222 NAND3X1_29
*1223 NAND2X1_55
*1224 OAI21X1_65
*1225 loop_limit_inst_compare_inst_number1[0]
*1226 DFFPOSX1_68
*1227 INVX1_109
*1228 XNOR2X1_18
*1229 INVX1_148
*1230 NOR2X1_100
*1231 loop_limit_inst_compare_inst_number1[2]
*1232 DFFPOSX1_70
*1233 XOR2X1_9
*1234 INVX1_111
*1235 XNOR2X1_16
*1236 INVX1_140
*1237 loop_limit_inst_compare_inst_number1[3]
*1238 DFFPOSX1_71
*1239 OR2X2_10
*1240 NOR2X1_98
*1241 INVX1_139
*1242 NAND2X1_66
*1243 loop_limit_inst_compare_inst_number1[5]
*1244 DFFPOSX1_73
*1245 INVX1_113
*1246 OAI21X1_73
*1247 AOI22X1_20
*1248 INVX1_134
*1249 loop_limit_inst_compare_inst_number1[6]
*1250 DFFPOSX1_74
*1251 XNOR2X1_15
*1252 INVX1_142
*1253 XOR2X1_8
*1254 INVX1_114
*1255 loop_limit_inst_compare_inst_number1[7]
*1256 DFFPOSX1_75
*1257 OR2X2_11
*1258 INVX1_141
*1259 XNOR2X1_14
*1260 XOR2X1_7
*1261 loop_limit_inst_compare_inst_number1[9]
*1262 DFFPOSX1_77
*1263 OR2X2_13
*1264 INVX1_130
*1265 AOI22X1_19
*1266 OAI21X1_76
*1267 loop_limit_inst_compare_inst_number1[13]
*1268 DFFPOSX1_81
*1269 INVX1_117
*1270 INVX1_126
*1271 NOR2X1_107
*1272 AOI22X1_18
*1273 _552_
*1274 NOR2X1_112
*1275 NAND2X1_78
*1276 NAND2X1_99
*1277 NAND2X1_101
*1278 NAND2X1_80
*1279 _554_
*1280 NOR2X1_113
*1281 NAND2X1_78
*1282 NAND2X1_81
*1283 NAND2X1_84
*1284 AND2X2_15
*1285 _559_
*1286 INVX2_12
*1287 NAND2X1_82
*1288 NAND2X1_85
*1289 AND2X2_16
*1290 NAND2X1_80
*1291 _562_
*1292 NOR2X1_116
*1293 NAND2X1_81
*1294 NAND2X1_82
*1295 NAND2X1_96
*1296 NAND2X1_97
*1297 _569_
*1298 NOR2X1_119
*1299 NAND2X1_101
*1300 NAND2X1_97
*1301 NAND2X1_83
*1302 NAND2X1_86
*1303 _570_
*1304 NOR2X1_120
*1305 NAND2X1_84
*1306 NAND2X1_85
*1307 NAND2X1_93
*1308 NAND2X1_83
*1309 _578_
*1310 NOR2X1_124
*1311 AND2X2_15
*1312 AND2X2_16
*1313 NAND2X1_88
*1314 NAND2X1_86
*1315 _581_
*1316 NOR2X1_126
*1317 OAI21X1_107
*1318 OAI21X1_112
*1319 NOR2X1_127
*1320 OAI21X1_88
*1321 _582_
*1322 AND2X2_14
*1323 OAI21X1_107
*1324 OAI21X1_112
*1325 NOR2X1_127
*1326 OAI21X1_88
*1327 _588_
*1328 NOR2X1_129
*1329 NAND2X1_99
*1330 NAND2X1_96
*1331 NAND2X1_93
*1332 NAND2X1_88
*1333 block8[0]
*1334 NAND2X1_95
*1335 OR2X2_18
*1336 XOR2X1_12
*1337 NOR2X1_190
*1338 block9[0]
*1339 NOR2X1_188
*1340 INVX1_165
*1341 NOR2X1_137
*1342 XOR2X1_11
*1343 block10[0]
*1344 NOR2X1_138
*1345 XOR2X1_15
*1346 AND2X2_17
*1347 XOR2X1_10
*1348 block11[0]
*1349 XOR2X1_14
*1350 OAI21X1_102
*1351 NAND2X1_129
*1352 INVX1_166
*1353 _773_
*1354 NAND3X1_39
*1355 NOR3X1_4
*1356 NAND2X1_113
*1357 OR2X2_20
*1358 AND2X2_26
*1359 _824_
*1360 NAND2X1_122
*1361 NOR2X1_179
*1362 NOR2X1_175
*1363 OAI21X1_140
*1364 OAI21X1_136
*1365 _829_
*1366 NAND2X1_124
*1367 OAI21X1_137
*1368 NOR2X1_180
*1369 NOR2X1_176
*1370 OAI21X1_141
*1371 _838_
*1372 NAND2X1_127
*1373 NOR2X1_192
*1374 OAI21X1_150
*1375 OAI21X1_139
*1376 NOR2X1_178
*1377 _851_
*1378 NAND3X1_43
*1379 NOR2X1_186
*1380 OAI21X1_142
*1381 NOR2X1_181
*1382 OAI21X1_146
*1383 _856_
*1384 NAND3X1_44
*1385 OAI21X1_147
*1386 NOR2X1_187
*1387 NOR2X1_182
*1388 OAI21X1_143
*1389 _861_
*1390 NAND3X1_45
*1391 OAI21X1_144
*1392 OAI21X1_148
*1393 NOR2X1_189
*1394 NOR2X1_183
*1395 _915_
*1396 INVX2_17
*1397 AOI21X1_105
*1398 AOI21X1_107
*1399 NOR2X1_194
*1400 AOI21X1_111
*1401 _922_
*1402 INVX2_18
*1403 MUX2X1_6
*1404 NAND2X1_150
*1405 OAI21X1_156
*1406 AOI21X1_109
*1407 _923_
*1408 INVX2_19
*1409 OAI21X1_163
*1410 OAI21X1_151
*1411 NOR2X1_197
*1412 NAND2X1_142
*1413 nonce_nonce_int_0[0]
*1414 DFFPOSX1_141
*1415 INVX1_212
*1416 AOI21X1_106
*1417 NAND2X1_143
*1418 NOR2X1_200
*1419 invalid_nonce
*1420 DFFPOSX1_60
*1421 OAI21X1_28
*1422 NAND3X1_48
*1423 NAND2X1_1
*1424 _135_
*1425 DFFPOSX1_43
*1426 INVX2_1
*1427 NOR2X1_209
*1428 BUFX2_1
*1429 _59_
*1430 INVX2_1
*1431 AOI21X1_17
*1432 OAI21X1_29
*1433 AOI21X1_29
*1434 hash_array2_2
*1435 DFFPOSX1_113
*1436 OAI21X1_18
*1437 OAI21X1_132
*1438 AND2X2_30
*1439 _100_
*1440 NAND2X1_3
*1441 NAND2X1_4
*1442 INVX1_34
*1443 NOR2X1_27
*1444 counter[2]
*1445 DFFPOSX1_5
*1446 INVX1_221
*1447 NAND2X1_6
*1448 OAI21X1_22
*1449 counter[5]
*1450 DFFPOSX1_8
*1451 AOI21X1_26
*1452 NAND2X1_8
*1453 NOR2X1_207
*1454 _116_
*1455 NAND2X1_7
*1456 OAI21X1_27
*1457 OAI21X1_26
*1458 OAI21X1_25
*1459 counter[6]
*1460 DFFPOSX1_9
*1461 NAND2X1_9
*1462 AOI21X1_27
*1463 NOR2X1_208
*1464 _121_
*1465 NAND2X1_9
*1466 OAI21X1_26
*1467 OAI21X1_27
*1468 INVX1_38
*1469 counter[7]
*1470 DFFPOSX1_10
*1471 NOR2X1_208
*1472 INVX1_37
*1473 OAI21X1_27
*1474 fail
*1475 DFFPOSX1_67
*1476 OAI21X1_71
*1477 NOR2X1_193
*1478 INVX1_40
*1479 loop_limit_inst_stop
*1480 DFFPOSX1_1
*1481 INVX1_120
*1482 OAI21X1_31
*1483 NOR2X1_69
*1484 _198_
*1485 INVX2_2
*1486 AOI22X1_5
*1487 AOI21X1_37
*1488 OAI21X1_38
*1489 _210_
*1490 NOR2X1_34
*1491 AOI21X1_38
*1492 AND2X2_4
*1493 NAND2X1_24
*1494 _212_
*1495 INVX2_3
*1496 NAND2X1_14
*1497 OR2X2_3
*1498 NOR2X1_45
*1499 compare_hash_0_compare_var[0]
*1500 DFFPOSX1_61
*1501 NAND2X1_23
*1502 INVX1_216
*1503 OAI22X1_11
*1504 compare_hash_0_compare_var[1]
*1505 DFFPOSX1_62
*1506 OR2X2_5
*1507 INVX1_219
*1508 OAI22X1_11
*1509 compare_hash_0_compare_var[2]
*1510 DFFPOSX1_63
*1511 INVX1_66
*1512 AND2X2_37
*1513 NOR2X1_206
*1514 _312_
*1515 INVX2_4
*1516 OAI21X1_51
*1517 AOI21X1_46
*1518 AOI22X1_11
*1519 _324_
*1520 NOR2X1_51
*1521 AOI21X1_47
*1522 AND2X2_7
*1523 NAND2X1_44
*1524 _326_
*1525 INVX2_5
*1526 NOR2X1_62
*1527 NAND2X1_34
*1528 OR2X2_6
*1529 compare_hash_1_compare_var[0]
*1530 DFFPOSX1_64
*1531 INVX1_217
*1532 NAND2X1_43
*1533 OAI22X1_10
*1534 compare_hash_1_compare_var[1]
*1535 DFFPOSX1_65
*1536 OR2X2_8
*1537 OAI21X1_164
*1538 INVX1_218
*1539 compare_hash_1_compare_var[2]
*1540 DFFPOSX1_66
*1541 NOR2X1_206
*1542 INVX1_94
*1543 AND2X2_37
*1544 _412_
*1545 INVX2_6
*1546 OAI21X1_58
*1547 AND2X2_10
*1548 AOI21X1_50
*1549 loop_limit_inst_compare_inst_compare_var[0]
*1550 DFFPOSX1_100
*1551 NOR2X1_68
*1552 NAND2X1_71
*1553 NAND2X1_50
*1554 loop_limit_inst_compare_inst_compare_var[1]
*1555 DFFPOSX1_101
*1556 OR2X2_17
*1557 NOR2X1_68
*1558 NAND2X1_50
*1559 loop_limit_inst_compare_inst_compare_var[2]
*1560 DFFPOSX1_102
*1561 INVX1_146
*1562 NAND2X1_57
*1563 OR2X2_9
*1564 _371_
*1565 NAND3X1_28
*1566 NOR3X1_2
*1567 NOR2X1_75
*1568 INVX1_101
*1569 _383_
*1570 NAND3X1_29
*1571 INVX1_105
*1572 NOR2X1_80
*1573 NOR3X1_3
*1574 _394_
*1575 NAND3X1_30
*1576 NAND2X1_56
*1577 OAI21X1_70
*1578 AOI21X1_55
*1579 loop_limit_inst_compare_inst_number1[4]
*1580 DFFPOSX1_72
*1581 INVX1_112
*1582 INVX1_135
*1583 AOI22X1_20
*1584 loop_limit_inst_compare_inst_number1[8]
*1585 DFFPOSX1_76
*1586 OR2X2_12
*1587 AOI22X1_19
*1588 INVX1_131
*1589 loop_limit_inst_compare_inst_number1[11]
*1590 DFFPOSX1_79
*1591 INVX1_116
*1592 INVX1_143
*1593 XNOR2X1_13
*1594 loop_limit_inst_compare_inst_number1[12]
*1595 DFFPOSX1_80
*1596 OR2X2_14
*1597 INVX1_127
*1598 AOI22X1_18
*1599 loop_limit_inst_compare_inst_number1[14]
*1600 DFFPOSX1_82
*1601 INVX1_118
*1602 INVX1_123
*1603 NAND2X1_59
*1604 loop_limit_inst_compare_inst_number1[15]
*1605 DFFPOSX1_83
*1606 NAND2X1_58
*1607 INVX1_119
*1608 INVX2_8
*1609 _492_
*1610 INVX2_8
*1611 OAI21X1_78
*1612 AOI21X1_62
*1613 AOI22X1_17
*1614 _504_
*1615 NOR2X1_95
*1616 AOI21X1_63
*1617 NAND2X1_72
*1618 AND2X2_11
*1619 _506_
*1620 INVX2_9
*1621 NOR2X1_106
*1622 NAND2X1_62
*1623 OR2X2_15
*1624 micro_abc_calculation_ints_b[8]
*1625 DFFPOSX1_120
*1626 AND2X2_27
*1627 AOI21X1_66
*1628 OAI21X1_85
*1629 _553_
*1630 INVX2_10
*1631 NOR2X1_113
*1632 NOR2X1_119
*1633 NAND2X1_79
*1634 _555_
*1635 NAND2X1_78
*1636 NOR2X1_166
*1637 NOR2X1_114
*1638 OAI21X1_124
*1639 _557_
*1640 INVX2_11
*1641 NOR2X1_129
*1642 NOR2X1_119
*1643 NAND2X1_79
*1644 block3[0]
*1645 NAND2X1_87
*1646 NOR2X1_128
*1647 XOR2X1_17
*1648 _600_
*1649 AND2X2_16
*1650 NAND2X1_91
*1651 OAI21X1_129
*1652 INVX1_184
*1653 block2[0]
*1654 OAI21X1_149
*1655 INVX1_203
*1656 XNOR2X1_19
*1657 block6[0]
*1658 NAND2X1_94
*1659 OAI21X1_94
*1660 XOR2X1_14
*1661 _644_
*1662 NAND2X1_97
*1663 NOR2X1_140
*1664 OAI21X1_101
*1665 NOR2X1_161
*1666 _667_
*1667 NAND2X1_101
*1668 NOR2X1_148
*1669 NOR2X1_168
*1670 NOR2X1_145
*1671 micro_abc_calculation_ints_imput_W2_logic[16]
*1672 DFFPOSX1_124
*1673 INVX1_200
*1674 NOR2X1_157
*1675 NAND2X1_102
*1676 micro_abc_calculation_ints_imput_W2_logic[24]
*1677 DFFPOSX1_125
*1678 OAI21X1_146
*1679 NAND2X1_104
*1680 INVX1_178
*1681 micro_abc_calculation_ints_imput_W2_logic[32]
*1682 DFFPOSX1_126
*1683 OAI21X1_145
*1684 NOR2X1_158
*1685 NAND2X1_105
*1686 micro_abc_calculation_ints_imput_W2_logic[56]
*1687 DFFPOSX1_129
*1688 OAI21X1_142
*1689 OAI21X1_117
*1690 NAND2X1_106
*1691 micro_abc_calculation_ints_imput_W2_logic[64]
*1692 DFFPOSX1_130
*1693 OAI21X1_141
*1694 NOR2X1_160
*1695 NAND2X1_107
*1696 micro_abc_calculation_ints_imput_W2_logic[72]
*1697 DFFPOSX1_131
*1698 OAI21X1_121
*1699 AND2X2_19
*1700 OAI21X1_140
*1701 micro_abc_calculation_ints_imput_W2_logic[88]
*1702 DFFPOSX1_133
*1703 NAND2X1_108
*1704 NOR2X1_163
*1705 OAI21X1_138
*1706 micro_abc_calculation_ints_imput_W2_logic[96]
*1707 DFFPOSX1_134
*1708 NOR2X1_165
*1709 AND2X2_20
*1710 OAI21X1_137
*1711 micro_abc_calculation_ints_imput_W2_logic[104]
*1712 DFFPOSX1_135
*1713 OAI21X1_136
*1714 OAI21X1_125
*1715 AND2X2_21
*1716 micro_abc_calculation_ints_imput_W2_logic[112]
*1717 DFFPOSX1_136
*1718 OAI21X1_150
*1719 NAND2X1_109
*1720 NOR2X1_169
*1721 micro_abc_calculation_ints_imput_W2_logic[120]
*1722 DFFPOSX1_137
*1723 INVX1_195
*1724 NOR2X1_171
*1725 AND2X2_22
*1726 micro_abc_calculation_ints_imput_W2_logic[0]
*1727 DFFPOSX1_122
*1728 OAI21X1_129
*1729 AND2X2_23
*1730 INVX1_202
*1731 _770_
*1732 NAND3X1_38
*1733 AOI21X1_81
*1734 AOI21X1_83
*1735 AOI21X1_82
*1736 _778_
*1737 INVX2_13
*1738 NOR3X1_4
*1739 OR2X2_20
*1740 AND2X2_26
*1741 _798_
*1742 NAND2X1_116
*1743 INVX1_190
*1744 AOI21X1_85
*1745 OAI21X1_132