* XSpice netlist created from SPICE and liberty sources by spi2xspice.py
*SPICE netlist created from BLIF module area_sys by blif2BSpice
.subckt area_sys a_vdd a_gnd a_clk a_reset a_block0_0_ a_block0_1_ a_block0_2_ a_block0_3_ a_block0_4_ a_block0_5_ a_block0_6_ a_block0_7_ a_block1_0_ a_block1_1_ a_block1_2_ a_block1_3_ a_block1_4_ a_block1_5_ a_block1_6_ a_block1_7_ a_block2_0_ a_block2_1_ a_block2_2_ a_block2_3_ a_block2_4_ a_block2_5_ a_block2_6_ a_block2_7_ a_block3_0_ a_block3_1_ a_block3_2_ a_block3_3_ a_block3_4_ a_block3_5_ a_block3_6_ a_block3_7_ a_block4_0_ a_block4_1_ a_block4_2_ a_block4_3_ a_block4_4_ a_block4_5_ a_block4_6_ a_block4_7_ a_block5_0_ a_block5_1_ a_block5_2_ a_block5_3_ a_block5_4_ a_block5_5_ a_block5_6_ a_block5_7_ a_block6_0_ a_block6_1_ a_block6_2_ a_block6_3_ a_block6_4_ a_block6_5_ a_block6_6_ a_block6_7_ a_block7_0_ a_block7_1_ a_block7_2_ a_block7_3_ a_block7_4_ a_block7_5_ a_block7_6_ a_block7_7_ a_block8_0_ a_block8_1_ a_block8_2_ a_block8_3_ a_block8_4_ a_block8_5_ a_block8_6_ a_block8_7_ a_block9_0_ a_block9_1_ a_block9_2_ a_block9_3_ a_block9_4_ a_block9_5_ a_block9_6_ a_block9_7_ a_block10_0_ a_block10_1_ a_block10_2_ a_block10_3_ a_block10_4_ a_block10_5_ a_block10_6_ a_block10_7_ a_block11_0_ a_block11_1_ a_block11_2_ a_block11_3_ a_block11_4_ a_block11_5_ a_block11_6_ a_block11_7_ a_start a_target_0_ a_target_1_ a_target_2_ a_target_3_ a_target_4_ a_target_5_ a_target_6_ a_target_7_ a_target_8_ a_target_9_ a_target_10_ a_target_11_ a_target_12_ a_target_13_ a_target_14_ a_target_15_ a_nonce0_0_ a_nonce0_1_ a_nonce0_2_ a_nonce0_3_ a_nonce0_4_ a_nonce0_5_ a_nonce0_6_ a_nonce0_7_ a_nonce1_0_ a_nonce1_1_ a_nonce1_2_ a_nonce1_3_ a_nonce1_4_ a_nonce1_5_ a_nonce1_6_ a_nonce1_7_ a_nonce2_0_ a_nonce2_1_ a_nonce2_2_ a_nonce2_3_ a_nonce2_4_ a_nonce2_5_ a_nonce2_6_ a_nonce2_7_ a_nonce3_0_ a_nonce3_1_ a_nonce3_2_ a_nonce3_3_ a_nonce3_4_ a_nonce3_5_ a_nonce3_6_ a_nonce3_7_ a_finish
ABUFX4_1 [_10_] _10__bF$buf3 d_lut_BUFX4
ABUFX4_2 [_10_] _10__bF$buf2 d_lut_BUFX4
ABUFX4_3 [_10_] _10__bF$buf1 d_lut_BUFX4
ABUFX4_4 [_10_] _10__bF$buf0 d_lut_BUFX4
ACLKBUF1_1 [clk] clk_bF$buf11 d_lut_CLKBUF1
ACLKBUF1_2 [clk] clk_bF$buf10 d_lut_CLKBUF1
ACLKBUF1_3 [clk] clk_bF$buf9 d_lut_CLKBUF1
ACLKBUF1_4 [clk] clk_bF$buf8 d_lut_CLKBUF1
ACLKBUF1_5 [clk] clk_bF$buf7 d_lut_CLKBUF1
ACLKBUF1_6 [clk] clk_bF$buf6 d_lut_CLKBUF1
ACLKBUF1_7 [clk] clk_bF$buf5 d_lut_CLKBUF1
ACLKBUF1_8 [clk] clk_bF$buf4 d_lut_CLKBUF1
ACLKBUF1_9 [clk] clk_bF$buf3 d_lut_CLKBUF1
ACLKBUF1_10 [clk] clk_bF$buf2 d_lut_CLKBUF1
ACLKBUF1_11 [clk] clk_bF$buf1 d_lut_CLKBUF1
ACLKBUF1_12 [clk] clk_bF$buf0 d_lut_CLKBUF1
ABUFX4_5 [_27_] _27__bF$buf3 d_lut_BUFX4
ABUFX4_6 [_27_] _27__bF$buf2 d_lut_BUFX4
ABUFX4_7 [_27_] _27__bF$buf1 d_lut_BUFX4
ABUFX4_8 [_27_] _27__bF$buf0 d_lut_BUFX4
ABUFX4_9 [_417_] _417__bF$buf3 d_lut_BUFX4
ABUFX4_10 [_417_] _417__bF$buf2 d_lut_BUFX4
ABUFX4_11 [_417_] _417__bF$buf1 d_lut_BUFX4
ABUFX4_12 [_417_] _417__bF$buf0 d_lut_BUFX4
ABUFX4_13 [_18_] _18__bF$buf3 d_lut_BUFX4
ABUFX4_14 [_18_] _18__bF$buf2 d_lut_BUFX4
ABUFX4_15 [_18_] _18__bF$buf1 d_lut_BUFX4
ABUFX4_16 [_18_] _18__bF$buf0 d_lut_BUFX4
ABUFX4_17 [micro.abc_calculation_ints.counter_4_] micro.abc_calculation_ints.counter_4_bF$buf4_ d_lut_BUFX4
ABUFX4_18 [micro.abc_calculation_ints.counter_4_] micro.abc_calculation_ints.counter_4_bF$buf3_ d_lut_BUFX4
ABUFX4_19 [micro.abc_calculation_ints.counter_4_] micro.abc_calculation_ints.counter_4_bF$buf2_ d_lut_BUFX4
ABUFX4_20 [micro.abc_calculation_ints.counter_4_] micro.abc_calculation_ints.counter_4_bF$buf1_ d_lut_BUFX4
ABUFX4_21 [micro.abc_calculation_ints.counter_4_] micro.abc_calculation_ints.counter_4_bF$buf0_ d_lut_BUFX4
ABUFX4_22 [_26_] _26__bF$buf3 d_lut_BUFX4
ABUFX4_23 [_26_] _26__bF$buf2 d_lut_BUFX4
ABUFX4_24 [_26_] _26__bF$buf1 d_lut_BUFX4
ABUFX4_25 [_26_] _26__bF$buf0 d_lut_BUFX4
ABUFX4_26 [_20_] _20__bF$buf3 d_lut_BUFX4
ABUFX4_27 [_20_] _20__bF$buf2 d_lut_BUFX4
ABUFX4_28 [_20_] _20__bF$buf1 d_lut_BUFX4
ABUFX4_29 [_20_] _20__bF$buf0 d_lut_BUFX4
ABUFX4_30 [_583_] _583__bF$buf6 d_lut_BUFX4
ABUFX4_31 [_583_] _583__bF$buf5 d_lut_BUFX4
ABUFX4_32 [_583_] _583__bF$buf4 d_lut_BUFX4
ABUFX4_33 [_583_] _583__bF$buf3 d_lut_BUFX4
ABUFX4_34 [_583_] _583__bF$buf2 d_lut_BUFX4
ABUFX4_35 [_583_] _583__bF$buf1 d_lut_BUFX4
ABUFX4_36 [_583_] _583__bF$buf0 d_lut_BUFX4
ABUFX4_37 [_63_] _63__bF$buf3 d_lut_BUFX4
ABUFX4_38 [_63_] _63__bF$buf2 d_lut_BUFX4
ABUFX4_39 [_63_] _63__bF$buf1 d_lut_BUFX4
ABUFX4_40 [_63_] _63__bF$buf0 d_lut_BUFX4
ABUFX4_41 [reset] reset_bF$buf5 d_lut_BUFX4
ABUFX4_42 [reset] reset_bF$buf4 d_lut_BUFX4
ABUFX4_43 [reset] reset_bF$buf3 d_lut_BUFX4
ABUFX4_44 [reset] reset_bF$buf2 d_lut_BUFX4
ABUFX4_45 [reset] reset_bF$buf1 d_lut_BUFX4
ABUFX4_46 [reset] reset_bF$buf0 d_lut_BUFX4
ABUFX4_47 [_591_] _591__bF$buf3 d_lut_BUFX4
ABUFX4_48 [_591_] _591__bF$buf2 d_lut_BUFX4
ABUFX4_49 [_591_] _591__bF$buf1 d_lut_BUFX4
ABUFX4_50 [_591_] _591__bF$buf0 d_lut_BUFX4
ANAND2X1_1 [counter_0_ invalid_nonce] _22_ d_lut_NAND2X1
ANOR2X1_1 [counter_1_ _22_] _23_ d_lut_NOR2X1
AAND2X2_1 [_13_ _14_] _24_ d_lut_AND2X2
AAND2X2_2 [_16_ counter_3_] _25_ d_lut_AND2X2
ANAND3X1_1 [_23_ _25_ _24_] _26_ d_lut_NAND3X1
AINVX8_1 [_20__bF$buf3] _27_ d_lut_INVX8
AOAI21X1_1 [_26__bF$buf3 _27__bF$buf3 loop_limit_inst.compare_inst.number0_0_] _28_ d_lut_OAI21X1
AAOI21X1_1 [_21_ _28_ _10__bF$buf3] _3__0_ d_lut_AOI21X1
ANAND3X1_2 [current_loop_actualize_1_ _20__bF$buf2 _18__bF$buf3] _29_ d_lut_NAND3X1
AOAI21X1_2 [_26__bF$buf2 _27__bF$buf2 loop_limit_inst.compare_inst.number0_1_] _30_ d_lut_OAI21X1
AAOI21X1_2 [_29_ _30_ _10__bF$buf2] _3__1_ d_lut_AOI21X1
ANAND3X1_3 [current_loop_actualize_2_ _20__bF$buf1 _18__bF$buf2] _31_ d_lut_NAND3X1
AOAI21X1_3 [_26__bF$buf1 _27__bF$buf1 loop_limit_inst.compare_inst.number0_2_] _32_ d_lut_OAI21X1
AAOI21X1_3 [_31_ _32_ _10__bF$buf1] _3__2_ d_lut_AOI21X1
ANAND3X1_4 [current_loop_actualize_3_ _20__bF$buf0 _18__bF$buf1] _33_ d_lut_NAND3X1
AOAI21X1_4 [_26__bF$buf0 _27__bF$buf0 loop_limit_inst.compare_inst.number0_3_] _34_ d_lut_OAI21X1
AAOI21X1_4 [_33_ _34_ _10__bF$buf0] _3__3_ d_lut_AOI21X1
ANAND3X1_5 [current_loop_actualize_4_ _20__bF$buf3 _18__bF$buf0] _35_ d_lut_NAND3X1
AOAI21X1_5 [_26__bF$buf3 _27__bF$buf3 loop_limit_inst.compare_inst.number0_4_] _36_ d_lut_OAI21X1
AAOI21X1_5 [_35_ _36_ _10__bF$buf3] _3__4_ d_lut_AOI21X1
ANAND3X1_6 [current_loop_actualize_5_ _20__bF$buf2 _18__bF$buf3] _37_ d_lut_NAND3X1
AOAI21X1_6 [_26__bF$buf2 _27__bF$buf2 loop_limit_inst.compare_inst.number0_5_] _38_ d_lut_OAI21X1
AAOI21X1_6 [_37_ _38_ _10__bF$buf2] _3__5_ d_lut_AOI21X1
ANAND3X1_7 [current_loop_actualize_6_ _20__bF$buf1 _18__bF$buf2] _39_ d_lut_NAND3X1
AOAI21X1_7 [_26__bF$buf1 _27__bF$buf1 loop_limit_inst.compare_inst.number0_6_] _40_ d_lut_OAI21X1
AAOI21X1_7 [_39_ _40_ _10__bF$buf1] _3__6_ d_lut_AOI21X1
ANAND3X1_8 [current_loop_actualize_7_ _20__bF$buf0 _18__bF$buf1] _41_ d_lut_NAND3X1
AOAI21X1_8 [_26__bF$buf0 _27__bF$buf0 loop_limit_inst.compare_inst.number0_7_] _42_ d_lut_OAI21X1
AAOI21X1_8 [_41_ _42_ _10__bF$buf0] _3__7_ d_lut_AOI21X1
ANAND3X1_9 [current_loop_actualize_8_ _20__bF$buf3 _18__bF$buf0] _43_ d_lut_NAND3X1
AOAI21X1_9 [_26__bF$buf3 _27__bF$buf3 loop_limit_inst.compare_inst.number0_8_] _44_ d_lut_OAI21X1
AAOI21X1_9 [_43_ _44_ _10__bF$buf3] _3__8_ d_lut_AOI21X1
ANAND3X1_10 [current_loop_actualize_9_ _20__bF$buf2 _18__bF$buf3] _45_ d_lut_NAND3X1
AOAI21X1_10 [_26__bF$buf2 _27__bF$buf2 loop_limit_inst.compare_inst.number0_9_] _46_ d_lut_OAI21X1
AAOI21X1_10 [_45_ _46_ _10__bF$buf2] _3__9_ d_lut_AOI21X1
ANAND3X1_11 [current_loop_actualize_10_ _20__bF$buf1 _18__bF$buf2] _47_ d_lut_NAND3X1
AOAI21X1_11 [_26__bF$buf1 _27__bF$buf1 loop_limit_inst.compare_inst.number0_10_] _48_ d_lut_OAI21X1
AAOI21X1_11 [_47_ _48_ _10__bF$buf1] _3__10_ d_lut_AOI21X1
ANAND3X1_12 [current_loop_actualize_11_ _20__bF$buf0 _18__bF$buf1] _49_ d_lut_NAND3X1
AOAI21X1_12 [_26__bF$buf0 _27__bF$buf0 loop_limit_inst.compare_inst.number0_11_] _50_ d_lut_OAI21X1
AAOI21X1_12 [_49_ _50_ _10__bF$buf0] _3__11_ d_lut_AOI21X1
ANAND3X1_13 [current_loop_actualize_12_ _20__bF$buf3 _18__bF$buf0] _51_ d_lut_NAND3X1
AOAI21X1_13 [_26__bF$buf3 _27__bF$buf3 loop_limit_inst.compare_inst.number0_12_] _52_ d_lut_OAI21X1
AAOI21X1_13 [_51_ _52_ _10__bF$buf3] _3__12_ d_lut_AOI21X1
ANAND3X1_14 [current_loop_actualize_13_ _20__bF$buf2 _18__bF$buf3] _53_ d_lut_NAND3X1
AOAI21X1_14 [_26__bF$buf2 _27__bF$buf2 loop_limit_inst.compare_inst.number0_13_] _54_ d_lut_OAI21X1
AAOI21X1_14 [_53_ _54_ _10__bF$buf2] _3__13_ d_lut_AOI21X1
ANAND3X1_15 [current_loop_actualize_14_ _20__bF$buf1 _18__bF$buf2] _55_ d_lut_NAND3X1
AOAI21X1_15 [_26__bF$buf1 _27__bF$buf1 loop_limit_inst.compare_inst.number0_14_] _56_ d_lut_OAI21X1
AAOI21X1_15 [_55_ _56_ _10__bF$buf1] _3__14_ d_lut_AOI21X1
ANAND3X1_16 [current_loop_actualize_15_ _20__bF$buf0 _18__bF$buf1] _57_ d_lut_NAND3X1
AOAI21X1_16 [_26__bF$buf0 _27__bF$buf0 loop_limit_inst.compare_inst.number0_15_] _58_ d_lut_OAI21X1
AAOI21X1_16 [_57_ _58_ _10__bF$buf0] _3__15_ d_lut_AOI21X1
AINVX2_1 [_135_] _59_ d_lut_INVX2
ANAND2X1_2 [reset_bF$buf5 validity.validity_reg] _60_ d_lut_NAND2X1
ANOR2X1_2 [start _10__bF$buf3] _61_ d_lut_NOR2X1
AAOI21X1_17 [_59_ _60_ _61_] _1_ d_lut_AOI21X1
AINVX1_1 [_139__0_] _62_ d_lut_INVX1
AOAI21X1_17 [_10__bF$buf2 start _60_] _63_ d_lut_OAI21X1
AOAI21X1_18 [_10__bF$buf1 start hash_array2_2] _64_ d_lut_OAI21X1
AAOI22X1_1 [_62_ _60_ _63__bF$buf3 _64_] _7__0_ d_lut_AOI22X1
AINVX1_2 [_139__1_] _65_ d_lut_INVX1
ANOR2X1_3 [_65_ _63__bF$buf2] _7__1_ d_lut_NOR2X1
AINVX1_3 [_139__2_] _66_ d_lut_INVX1
ANOR2X1_4 [_66_ _63__bF$buf1] _7__2_ d_lut_NOR2X1
AINVX1_4 [_139__3_] _67_ d_lut_INVX1
ANOR2X1_5 [_67_ _63__bF$buf0] _7__3_ d_lut_NOR2X1
AINVX1_5 [_139__4_] _68_ d_lut_INVX1
ANOR2X1_6 [_68_ _63__bF$buf3] _7__4_ d_lut_NOR2X1
AINVX1_6 [_139__5_] _69_ d_lut_INVX1
ANOR2X1_7 [_69_ _63__bF$buf2] _7__5_ d_lut_NOR2X1
AINVX1_7 [_139__6_] _70_ d_lut_INVX1
ANOR2X1_8 [_70_ _63__bF$buf1] _7__6_ d_lut_NOR2X1
AINVX1_8 [_139__7_] _71_ d_lut_INVX1
ANOR2X1_9 [_71_ _63__bF$buf0] _7__7_ d_lut_NOR2X1
AINVX1_9 [_138__0_] _72_ d_lut_INVX1
AOAI21X1_19 [_10__bF$buf0 start hash_array2_1] _73_ d_lut_OAI21X1
AAOI22X1_2 [_72_ _60_ _63__bF$buf3 _73_] _6__0_ d_lut_AOI22X1
AINVX1_10 [_138__1_] _74_ d_lut_INVX1
ANOR2X1_10 [_74_ _63__bF$buf2] _6__1_ d_lut_NOR2X1
AINVX1_11 [_138__2_] _75_ d_lut_INVX1
ANOR2X1_11 [_75_ _63__bF$buf1] _6__2_ d_lut_NOR2X1
AINVX1_12 [_138__3_] _76_ d_lut_INVX1
ANOR2X1_12 [_76_ _63__bF$buf0] _6__3_ d_lut_NOR2X1
AINVX1_13 [_138__4_] _77_ d_lut_INVX1
ANOR2X1_13 [_77_ _63__bF$buf3] _6__4_ d_lut_NOR2X1
AINVX1_14 [_138__5_] _78_ d_lut_INVX1
ANOR2X1_14 [_78_ _63__bF$buf2] _6__5_ d_lut_NOR2X1
AINVX1_15 [_138__6_] _79_ d_lut_INVX1
ANOR2X1_15 [_79_ _63__bF$buf1] _6__6_ d_lut_NOR2X1
AINVX1_16 [_138__7_] _80_ d_lut_INVX1
ANOR2X1_16 [_80_ _63__bF$buf0] _6__7_ d_lut_NOR2X1
AINVX1_17 [_137__0_] _81_ d_lut_INVX1
AINVX1_18 [validity.validity_reg] _82_ d_lut_INVX1
AOAI21X1_20 [_82_ hash_array2_0 start] _83_ d_lut_OAI21X1
AAOI22X1_3 [_81_ _60_ _83_ reset_bF$buf4] _5__0_ d_lut_AOI22X1
AINVX1_19 [_137__1_] _84_ d_lut_INVX1
ANOR2X1_17 [_84_ _63__bF$buf3] _5__1_ d_lut_NOR2X1
AINVX1_20 [_137__2_] _85_ d_lut_INVX1
ANOR2X1_18 [_85_ _63__bF$buf2] _5__2_ d_lut_NOR2X1
AINVX1_21 [_137__3_] _86_ d_lut_INVX1
ANOR2X1_19 [_86_ _63__bF$buf1] _5__3_ d_lut_NOR2X1
AINVX1_22 [_137__4_] _87_ d_lut_INVX1
ANOR2X1_20 [_87_ _63__bF$buf0] _5__4_ d_lut_NOR2X1
AINVX1_23 [_137__5_] _88_ d_lut_INVX1
ANOR2X1_21 [_88_ _63__bF$buf3] _5__5_ d_lut_NOR2X1
AINVX1_24 [_137__6_] _89_ d_lut_INVX1
ANOR2X1_22 [_89_ _63__bF$buf2] _5__6_ d_lut_NOR2X1
AINVX1_25 [_137__7_] _90_ d_lut_INVX1
ANOR2X1_23 [_90_ _63__bF$buf1] _5__7_ d_lut_NOR2X1
AINVX1_26 [_136__0_] _91_ d_lut_INVX1
AOR2X2_1 [_61_ hash_array2_0] _92_ d_lut_OR2X2
AAOI22X1_4 [_91_ _60_ _92_ _63__bF$buf0] _4__0_ d_lut_AOI22X1
AINVX1_27 [_136__1_] _93_ d_lut_INVX1
AAOI21X1_18 [_93_ _60_ _61_] _4__1_ d_lut_AOI21X1
AINVX1_28 [_136__2_] _94_ d_lut_INVX1
AAOI21X1_19 [_94_ _60_ _61_] _4__2_ d_lut_AOI21X1
AINVX1_29 [_136__3_] _95_ d_lut_INVX1
AAOI21X1_20 [_95_ _60_ _61_] _4__3_ d_lut_AOI21X1
AINVX1_30 [_136__4_] _96_ d_lut_INVX1
AAOI21X1_21 [_96_ _60_ _61_] _4__4_ d_lut_AOI21X1
AINVX1_31 [_136__5_] _97_ d_lut_INVX1
AAOI21X1_22 [_97_ _60_ _61_] _4__5_ d_lut_AOI21X1
AINVX1_32 [_136__6_] _98_ d_lut_INVX1
AAOI21X1_23 [_98_ _60_ _61_] _4__6_ d_lut_AOI21X1
AINVX1_33 [_136__7_] _99_ d_lut_INVX1
AAOI21X1_24 [_99_ _60_ _61_] _4__7_ d_lut_AOI21X1
ANAND2X1_3 [start counter_0_] _100_ d_lut_NAND2X1
AINVX1_34 [_100_] _101_ d_lut_INVX1
AOAI21X1_21 [start counter_0_ reset_bF$buf3] _102_ d_lut_OAI21X1
ANOR2X1_24 [_102_ _101_] _0__0_ d_lut_NOR2X1
ANOR2X1_25 [_27__bF$buf3 _26__bF$buf3] _103_ d_lut_NOR2X1
ANAND2X1_4 [_11_ _100_] _104_ d_lut_NAND2X1
ANAND2X1_5 [counter_1_ _101_] _105_ d_lut_NAND2X1
ANAND3X1_17 [reset_bF$buf2 _104_ _105_] _106_ d_lut_NAND3X1
ANOR2X1_26 [_106_ _103_] _0__1_ d_lut_NOR2X1
ANAND2X1_6 [counter_2_ counter_1_] _107_ d_lut_NAND2X1
ANOR2X1_27 [_100_ _107_] _108_ d_lut_NOR2X1
AINVX1_35 [_105_] _109_ d_lut_INVX1
AOAI21X1_22 [_109_ counter_2_ reset_bF$buf1] _110_ d_lut_OAI21X1
ANOR2X1_28 [_108_ _110_] _0__2_ d_lut_NOR2X1
AAND2X2_3 [_108_ counter_3_] _111_ d_lut_AND2X2
AOAI21X1_23 [_108_ counter_3_ reset_bF$buf0] _112_ d_lut_OAI21X1
AOR2X2_2 [_111_ _112_] _113_ d_lut_OR2X2
ANOR2X1_29 [_103_ _113_] _0__3_ d_lut_NOR2X1
AOAI21X1_24 [_111_ counter_4_ reset_bF$buf5] _114_ d_lut_OAI21X1
AAOI21X1_25 [counter_4_ _111_ _114_] _0__4_ d_lut_AOI21X1
AAOI21X1_26 [counter_4_ _111_ counter_5_] _115_ d_lut_AOI21X1
ANAND2X1_7 [counter_3_ _108_] _116_ d_lut_NAND2X1
ANAND2X1_8 [counter_5_ counter_4_] _117_ d_lut_NAND2X1
AOAI21X1_25 [_116_ _117_ reset_bF$buf4] _118_ d_lut_OAI21X1
ANOR2X1_30 [_118_ _115_] _0__5_ d_lut_NOR2X1
AINVX1_36 [_117_] _119_ d_lut_INVX1
AAOI21X1_27 [_119_ _111_ counter_6_] _120_ d_lut_AOI21X1
ANAND2X1_9 [counter_6_ _119_] _121_ d_lut_NAND2X1
AOAI21X1_26 [_116_ _121_ reset_bF$buf3] _122_ d_lut_OAI21X1
ANOR2X1_31 [_122_ _120_] _0__6_ d_lut_NOR2X1
AOAI21X1_27 [_116_ _121_ counter_7_] _123_ d_lut_OAI21X1
AINVX1_37 [counter_7_] _124_ d_lut_INVX1
AINVX1_38 [_121_] _125_ d_lut_INVX1
ANAND3X1_18 [_124_ _111_ _125_] _126_ d_lut_NAND3X1
AAOI21X1_28 [_123_ _126_ _10__bF$buf3] _0__7_ d_lut_AOI21X1
ANOR2X1_32 [_19_ _82_] _127_ d_lut_NOR2X1
AOAI21X1_28 [start invalid_nonce reset_bF$buf2] _128_ d_lut_OAI21X1
ANOR2X1_33 [_128_ _127_] _2_ d_lut_NOR2X1
AINVX1_39 [micro.counter_inst.ready] _129_ d_lut_INVX1
AOAI21X1_29 [_59_ _129_ _127_] _130_ d_lut_OAI21X1
AAOI21X1_29 [_59_ _129_ _130_] _131_ d_lut_AOI21X1
AOAI21X1_30 [start micro.counter_inst.ready reset_bF$buf1] _132_ d_lut_OAI21X1
AAOI21X1_30 [_18__bF$buf0 _131_ _132_] _8_ d_lut_AOI21X1
AINVX1_40 [fail] _133_ d_lut_INVX1
AOAI21X1_31 [start loop_limit_inst.stop reset_bF$buf0] _134_ d_lut_OAI21X1
AAOI21X1_31 [_133_ _20__bF$buf3 _134_] _9_ d_lut_AOI21X1
ABUFX2_1 [_135_] finish d_lut_BUFX2
ABUFX2_2 [_136__0_] nonce0_0_ d_lut_BUFX2
ABUFX2_3 [_136__1_] nonce0_1_ d_lut_BUFX2
ABUFX2_4 [_136__2_] nonce0_2_ d_lut_BUFX2
ABUFX2_5 [_136__3_] nonce0_3_ d_lut_BUFX2
ABUFX2_6 [_136__4_] nonce0_4_ d_lut_BUFX2
ABUFX2_7 [_136__5_] nonce0_5_ d_lut_BUFX2
ABUFX2_8 [_136__6_] nonce0_6_ d_lut_BUFX2
ABUFX2_9 [_136__7_] nonce0_7_ d_lut_BUFX2
ABUFX2_10 [_137__0_] nonce1_0_ d_lut_BUFX2
ABUFX2_11 [_137__1_] nonce1_1_ d_lut_BUFX2
ABUFX2_12 [_137__2_] nonce1_2_ d_lut_BUFX2
ABUFX2_13 [_137__3_] nonce1_3_ d_lut_BUFX2
ABUFX2_14 [_137__4_] nonce1_4_ d_lut_BUFX2
ABUFX2_15 [_137__5_] nonce1_5_ d_lut_BUFX2
ABUFX2_16 [_137__6_] nonce1_6_ d_lut_BUFX2
ABUFX2_17 [_137__7_] nonce1_7_ d_lut_BUFX2
ABUFX2_18 [_138__0_] nonce2_0_ d_lut_BUFX2
ABUFX2_19 [_138__1_] nonce2_1_ d_lut_BUFX2
ABUFX2_20 [_138__2_] nonce2_2_ d_lut_BUFX2
ABUFX2_21 [_138__3_] nonce2_3_ d_lut_BUFX2
ABUFX2_22 [_138__4_] nonce2_4_ d_lut_BUFX2
ABUFX2_23 [_138__5_] nonce2_5_ d_lut_BUFX2
ABUFX2_24 [_138__6_] nonce2_6_ d_lut_BUFX2
ABUFX2_25 [_138__7_] nonce2_7_ d_lut_BUFX2
ABUFX2_26 [_139__0_] nonce3_0_ d_lut_BUFX2
ABUFX2_27 [_139__1_] nonce3_1_ d_lut_BUFX2
ABUFX2_28 [_139__2_] nonce3_2_ d_lut_BUFX2
ABUFX2_29 [_139__3_] nonce3_3_ d_lut_BUFX2
ABUFX2_30 [_139__4_] nonce3_4_ d_lut_BUFX2
ABUFX2_31 [_139__5_] nonce3_5_ d_lut_BUFX2
ABUFX2_32 [_139__6_] nonce3_6_ d_lut_BUFX2
ABUFX2_33 [_139__7_] nonce3_7_ d_lut_BUFX2
ADFFPOSX1_1 _9_ clk_bF$buf11 NULL NULL loop_limit_inst.stop NULL ddflop
ADFFPOSX1_2 _8_ clk_bF$buf10 NULL NULL micro.counter_inst.ready NULL ddflop
ADFFPOSX1_3 _0__0_ clk_bF$buf9 NULL NULL counter_0_ NULL ddflop
ADFFPOSX1_4 _0__1_ clk_bF$buf8 NULL NULL counter_1_ NULL ddflop
ADFFPOSX1_5 _0__2_ clk_bF$buf7 NULL NULL counter_2_ NULL ddflop
ADFFPOSX1_6 _0__3_ clk_bF$buf6 NULL NULL counter_3_ NULL ddflop
ADFFPOSX1_7 _0__4_ clk_bF$buf5 NULL NULL counter_4_ NULL ddflop
ADFFPOSX1_8 _0__5_ clk_bF$buf4 NULL NULL counter_5_ NULL ddflop
ADFFPOSX1_9 _0__6_ clk_bF$buf3 NULL NULL counter_6_ NULL ddflop
ADFFPOSX1_10 _0__7_ clk_bF$buf2 NULL NULL counter_7_ NULL ddflop
ADFFPOSX1_11 _4__0_ clk_bF$buf1 NULL NULL _136__0_ NULL ddflop
ADFFPOSX1_12 _4__1_ clk_bF$buf0 NULL NULL _136__1_ NULL ddflop
ADFFPOSX1_13 _4__2_ clk_bF$buf11 NULL NULL _136__2_ NULL ddflop
ADFFPOSX1_14 _4__3_ clk_bF$buf10 NULL NULL _136__3_ NULL ddflop
ADFFPOSX1_15 _4__4_ clk_bF$buf9 NULL NULL _136__4_ NULL ddflop
ADFFPOSX1_16 _4__5_ clk_bF$buf8 NULL NULL _136__5_ NULL ddflop
ADFFPOSX1_17 _4__6_ clk_bF$buf7 NULL NULL _136__6_ NULL ddflop
ADFFPOSX1_18 _4__7_ clk_bF$buf6 NULL NULL _136__7_ NULL ddflop
ADFFPOSX1_19 _5__0_ clk_bF$buf5 NULL NULL _137__0_ NULL ddflop
ADFFPOSX1_20 _5__1_ clk_bF$buf4 NULL NULL _137__1_ NULL ddflop
ADFFPOSX1_21 _5__2_ clk_bF$buf3 NULL NULL _137__2_ NULL ddflop
ADFFPOSX1_22 _5__3_ clk_bF$buf2 NULL NULL _137__3_ NULL ddflop
ADFFPOSX1_23 _5__4_ clk_bF$buf1 NULL NULL _137__4_ NULL ddflop
ADFFPOSX1_24 _5__5_ clk_bF$buf0 NULL NULL _137__5_ NULL ddflop
ADFFPOSX1_25 _5__6_ clk_bF$buf11 NULL NULL _137__6_ NULL ddflop
ADFFPOSX1_26 _5__7_ clk_bF$buf10 NULL NULL _137__7_ NULL ddflop
ADFFPOSX1_27 _6__0_ clk_bF$buf9 NULL NULL _138__0_ NULL ddflop
ADFFPOSX1_28 _6__1_ clk_bF$buf8 NULL NULL _138__1_ NULL ddflop
ADFFPOSX1_29 _6__2_ clk_bF$buf7 NULL NULL _138__2_ NULL ddflop
ADFFPOSX1_30 _6__3_ clk_bF$buf6 NULL NULL _138__3_ NULL ddflop
ADFFPOSX1_31 _6__4_ clk_bF$buf5 NULL NULL _138__4_ NULL ddflop
ADFFPOSX1_32 _6__5_ clk_bF$buf4 NULL NULL _138__5_ NULL ddflop
ADFFPOSX1_33 _6__6_ clk_bF$buf3 NULL NULL _138__6_ NULL ddflop
ADFFPOSX1_34 _6__7_ clk_bF$buf2 NULL NULL _138__7_ NULL ddflop
ADFFPOSX1_35 _7__0_ clk_bF$buf1 NULL NULL _139__0_ NULL ddflop
ADFFPOSX1_36 _7__1_ clk_bF$buf0 NULL NULL _139__1_ NULL ddflop
ADFFPOSX1_37 _7__2_ clk_bF$buf11 NULL NULL _139__2_ NULL ddflop
ADFFPOSX1_38 _7__3_ clk_bF$buf10 NULL NULL _139__3_ NULL ddflop
ADFFPOSX1_39 _7__4_ clk_bF$buf9 NULL NULL _139__4_ NULL ddflop
ADFFPOSX1_40 _7__5_ clk_bF$buf8 NULL NULL _139__5_ NULL ddflop
ADFFPOSX1_41 _7__6_ clk_bF$buf7 NULL NULL _139__6_ NULL ddflop
ADFFPOSX1_42 _7__7_ clk_bF$buf6 NULL NULL _139__7_ NULL ddflop
ADFFPOSX1_43 _1_ clk_bF$buf5 NULL NULL _135_ NULL ddflop
ADFFPOSX1_44 _3__0_ clk_bF$buf4 NULL NULL loop_limit_inst.compare_inst.number0_0_ NULL ddflop
ADFFPOSX1_45 _3__1_ clk_bF$buf3 NULL NULL loop_limit_inst.compare_inst.number0_1_ NULL ddflop
ADFFPOSX1_46 _3__2_ clk_bF$buf2 NULL NULL loop_limit_inst.compare_inst.number0_2_ NULL ddflop
ADFFPOSX1_47 _3__3_ clk_bF$buf1 NULL NULL loop_limit_inst.compare_inst.number0_3_ NULL ddflop
ADFFPOSX1_48 _3__4_ clk_bF$buf0 NULL NULL loop_limit_inst.compare_inst.number0_4_ NULL ddflop
ADFFPOSX1_49 _3__5_ clk_bF$buf11 NULL NULL loop_limit_inst.compare_inst.number0_5_ NULL ddflop
ADFFPOSX1_50 _3__6_ clk_bF$buf10 NULL NULL loop_limit_inst.compare_inst.number0_6_ NULL ddflop
ADFFPOSX1_51 _3__7_ clk_bF$buf9 NULL NULL loop_limit_inst.compare_inst.number0_7_ NULL ddflop
ADFFPOSX1_52 _3__8_ clk_bF$buf8 NULL NULL loop_limit_inst.compare_inst.number0_8_ NULL ddflop
ADFFPOSX1_53 _3__9_ clk_bF$buf7 NULL NULL loop_limit_inst.compare_inst.number0_9_ NULL ddflop
ADFFPOSX1_54 _3__10_ clk_bF$buf6 NULL NULL loop_limit_inst.compare_inst.number0_10_ NULL ddflop
ADFFPOSX1_55 _3__11_ clk_bF$buf5 NULL NULL loop_limit_inst.compare_inst.number0_11_ NULL ddflop
ADFFPOSX1_56 _3__12_ clk_bF$buf4 NULL NULL loop_limit_inst.compare_inst.number0_12_ NULL ddflop
ADFFPOSX1_57 _3__13_ clk_bF$buf3 NULL NULL loop_limit_inst.compare_inst.number0_13_ NULL ddflop
ADFFPOSX1_58 _3__14_ clk_bF$buf2 NULL NULL loop_limit_inst.compare_inst.number0_14_ NULL ddflop
ADFFPOSX1_59 _3__15_ clk_bF$buf1 NULL NULL loop_limit_inst.compare_inst.number0_15_ NULL ddflop
ADFFPOSX1_60 _2_ clk_bF$buf0 NULL NULL invalid_nonce NULL ddflop
AINVX1_41 [gnd] _194_ d_lut_INVX1
ANAND2X1_10 [target_15_ _194_] _195_ d_lut_NAND2X1
AINVX1_42 [gnd] _196_ d_lut_INVX1
ANAND2X1_11 [target_14_ _196_] _197_ d_lut_NAND2X1
AINVX2_2 [target_15_] _198_ d_lut_INVX2
AINVX1_43 [target_14_] _199_ d_lut_INVX1
AAOI22X1_5 [_198_ gnd _199_ gnd] _200_ d_lut_AOI22X1
ANAND3X1_19 [_195_ _197_ _200_] _201_ d_lut_NAND3X1
AINVX1_44 [gnd] _202_ d_lut_INVX1
AINVX1_45 [gnd] _203_ d_lut_INVX1
AAOI22X1_6 [_202_ target_13_ target_12_ _203_] _204_ d_lut_AOI22X1
AINVX1_46 [target_13_] _205_ d_lut_INVX1
ANAND2X1_12 [gnd _205_] _206_ d_lut_NAND2X1
AINVX1_47 [target_12_] _207_ d_lut_INVX1
ANAND2X1_13 [gnd _207_] _208_ d_lut_NAND2X1
ANAND3X1_20 [_206_ _208_ _204_] _209_ d_lut_NAND3X1
ANOR2X1_34 [_201_ _209_] _210_ d_lut_NOR2X1
AXNOR2X1_1 [gnd target_11_] _211_ d_lut_XNOR2X1
AINVX2_3 [target_10_] _212_ d_lut_INVX2
AOR2X2_3 [_212_ gnd] _213_ d_lut_OR2X2
ANAND2X1_14 [gnd _212_] _214_ d_lut_NAND2X1
ANAND3X1_21 [_213_ _214_ _211_] _215_ d_lut_NAND3X1
AINVX1_48 [gnd] _216_ d_lut_INVX1
AINVX1_49 [gnd] _217_ d_lut_INVX1
AAOI22X1_7 [_216_ target_9_ target_8_ _217_] _218_ d_lut_AOI22X1
AINVX1_50 [target_9_] _219_ d_lut_INVX1
ANAND2X1_15 [gnd _219_] _220_ d_lut_NAND2X1
AINVX1_51 [target_8_] _221_ d_lut_INVX1
ANAND2X1_16 [gnd _221_] _222_ d_lut_NAND2X1
ANAND3X1_22 [_220_ _222_ _218_] _223_ d_lut_NAND3X1
ANOR2X1_35 [_223_ _215_] _224_ d_lut_NOR2X1
AAND2X2_4 [_224_ _210_] _225_ d_lut_AND2X2
AXOR2X1_1 [gnd target_7_] _226_ d_lut_XOR2X1
AXOR2X1_2 [target_6_ gnd] _227_ d_lut_XOR2X1
ANOR2X1_36 [_226_ _227_] _228_ d_lut_NOR2X1
AINVX1_52 [gnd] _229_ d_lut_INVX1
AINVX1_53 [gnd] _230_ d_lut_INVX1
AAOI22X1_8 [_229_ target_5_ target_4_ _230_] _231_ d_lut_AOI22X1
AINVX1_54 [target_5_] _232_ d_lut_INVX1
AINVX1_55 [target_4_] _233_ d_lut_INVX1
AAOI22X1_9 [_232_ gnd _233_ gnd] _234_ d_lut_AOI22X1
AAND2X2_5 [_231_ _234_] _235_ d_lut_AND2X2
ANAND2X1_17 [_228_ _235_] _236_ d_lut_NAND2X1
ANOR2X1_37 [target_3_ gnd] _237_ d_lut_NOR2X1
AINVX1_56 [_237_] _238_ d_lut_INVX1
ANAND2X1_18 [target_3_ gnd] _239_ d_lut_NAND2X1
AXOR2X1_3 [target_2_ gnd] _240_ d_lut_XOR2X1
AAOI21X1_32 [_238_ _239_ _240_] _241_ d_lut_AOI21X1
AINVX1_57 [gnd] _242_ d_lut_INVX1
ANAND2X1_19 [target_1_ _242_] _243_ d_lut_NAND2X1
ANOR2X1_38 [target_1_ _242_] _244_ d_lut_NOR2X1
AINVX1_58 [hash_array2_0] _245_ d_lut_INVX1
ANOR2X1_39 [target_0_ _245_] _246_ d_lut_NOR2X1
AOAI21X1_32 [_244_ _246_ _243_] _247_ d_lut_OAI21X1
ANAND2X1_20 [_247_ _241_] _248_ d_lut_NAND2X1
AINVX1_59 [target_3_] _249_ d_lut_INVX1
ANOR2X1_40 [gnd _249_] _250_ d_lut_NOR2X1
ANAND2X1_21 [gnd _249_] _251_ d_lut_NAND2X1
AINVX1_60 [target_2_] _252_ d_lut_INVX1
ANOR2X1_41 [gnd _252_] _253_ d_lut_NOR2X1
AAOI21X1_33 [_251_ _253_ _250_] _141_ d_lut_AOI21X1
AAOI21X1_34 [_141_ _248_ _236_] _142_ d_lut_AOI21X1
AXNOR2X1_2 [gnd target_7_] _143_ d_lut_XNOR2X1
AXNOR2X1_3 [target_6_ gnd] _144_ d_lut_XNOR2X1
ANAND2X1_22 [_143_ _144_] _145_ d_lut_NAND2X1
AOAI22X1_1 [_232_ gnd _233_ gnd] _146_ d_lut_OAI22X1
AOAI21X1_33 [_229_ target_5_ _146_] _147_ d_lut_OAI21X1
AINVX1_61 [target_7_] _148_ d_lut_INVX1
ANOR2X1_42 [gnd _148_] _149_ d_lut_NOR2X1
AINVX1_62 [target_6_] _150_ d_lut_INVX1
ANOR2X1_43 [gnd _150_] _151_ d_lut_NOR2X1
AAOI21X1_35 [_151_ _143_ _149_] _152_ d_lut_AOI21X1
AOAI21X1_34 [_145_ _147_ _152_] _153_ d_lut_OAI21X1
AOAI21X1_35 [_142_ _153_ _225_] _154_ d_lut_OAI21X1
AINVX1_63 [target_11_] _155_ d_lut_INVX1
ANOR2X1_44 [gnd _155_] _156_ d_lut_NOR2X1
ANOR2X1_45 [gnd _212_] _157_ d_lut_NOR2X1
AAOI21X1_36 [_157_ _211_ _156_] _158_ d_lut_AOI21X1
AOAI22X1_2 [_219_ gnd _221_ gnd] _159_ d_lut_OAI22X1
AOAI21X1_36 [_216_ target_9_ _159_] _160_ d_lut_OAI21X1
AOAI21X1_37 [_215_ _160_ _158_] _161_ d_lut_OAI21X1
ANOR2X1_46 [target_13_ _202_] _162_ d_lut_NOR2X1
AOR2X2_4 [_204_ _162_] _163_ d_lut_OR2X2
AAOI21X1_37 [_198_ gnd _197_] _164_ d_lut_AOI21X1
AOAI21X1_38 [_198_ gnd reset_bF$buf5] _165_ d_lut_OAI21X1
ANOR2X1_47 [_165_ _164_] _166_ d_lut_NOR2X1
AOAI21X1_39 [_201_ _163_ _166_] _167_ d_lut_OAI21X1
AAOI21X1_38 [_210_ _161_ _167_] _168_ d_lut_AOI21X1
AINVX1_64 [reset_bF$buf4] _169_ d_lut_INVX1
ANAND2X1_23 [compare_hash_0.compare_var_0_ _169_] _170_ d_lut_NAND2X1
ANAND2X1_24 [_210_ _224_] _171_ d_lut_NAND2X1
ANAND2X1_25 [_231_ _234_] _172_ d_lut_NAND2X1
ANOR2X1_48 [_172_ _145_] _173_ d_lut_NOR2X1
AINVX1_65 [_239_] _174_ d_lut_INVX1
AXNOR2X1_4 [target_2_ gnd] _175_ d_lut_XNOR2X1
AOAI21X1_40 [_237_ _174_ _175_] _176_ d_lut_OAI21X1
AXNOR2X1_5 [target_1_ gnd] _177_ d_lut_XNOR2X1
AXNOR2X1_6 [target_0_ hash_array2_0] _178_ d_lut_XNOR2X1
ANAND2X1_26 [_177_ _178_] _179_ d_lut_NAND2X1
ANOR2X1_49 [_179_ _176_] _180_ d_lut_NOR2X1
ANAND2X1_27 [_173_ _180_] _181_ d_lut_NAND2X1
AOAI21X1_41 [_171_ _181_ reset_bF$buf3] _182_ d_lut_OAI21X1
AAOI22X1_10 [_170_ _182_ _154_ _168_] _140__0_ d_lut_AOI22X1
AOR2X2_5 [reset_bF$buf2 compare_hash_0.compare_var_1_] _183_ d_lut_OR2X2
AAND2X2_6 [_182_ _183_] _140__1_ d_lut_AND2X2
AINVX1_66 [compare_hash_0.compare_var_2_] _184_ d_lut_INVX1
AINVX1_67 [target_1_] _185_ d_lut_INVX1
ANOR2X1_50 [gnd _185_] _186_ d_lut_NOR2X1
ANAND2X1_28 [gnd _185_] _187_ d_lut_NAND2X1
AINVX1_68 [target_0_] _188_ d_lut_INVX1
ANAND2X1_29 [hash_array2_0 _188_] _189_ d_lut_NAND2X1
AAOI21X1_39 [_187_ _189_ _186_] _190_ d_lut_AOI21X1
AOAI21X1_42 [_176_ _190_ _141_] _191_ d_lut_OAI21X1
AAOI21X1_40 [_173_ _191_ _153_] _192_ d_lut_AOI21X1
AOAI21X1_43 [_192_ _171_ _168_] _193_ d_lut_OAI21X1
AOAI21X1_44 [reset_bF$buf1 _184_ _193_] _140__2_ d_lut_OAI21X1
ADFFPOSX1_61 _140__0_ clk_bF$buf11 NULL NULL compare_hash_0.compare_var_0_ NULL ddflop
ADFFPOSX1_62 _140__1_ clk_bF$buf10 NULL NULL compare_hash_0.compare_var_1_ NULL ddflop
ADFFPOSX1_63 _140__2_ clk_bF$buf9 NULL NULL compare_hash_0.compare_var_2_ NULL ddflop
AINVX1_69 [gnd] _308_ d_lut_INVX1
ANAND2X1_30 [target_15_ _308_] _309_ d_lut_NAND2X1
AINVX1_70 [gnd] _310_ d_lut_INVX1
ANAND2X1_31 [target_14_ _310_] _311_ d_lut_NAND2X1
AINVX2_4 [target_15_] _312_ d_lut_INVX2
AINVX1_71 [target_14_] _313_ d_lut_INVX1
AAOI22X1_11 [_312_ gnd _313_ gnd] _314_ d_lut_AOI22X1
ANAND3X1_23 [_309_ _311_ _314_] _315_ d_lut_NAND3X1
AINVX1_72 [gnd] _316_ d_lut_INVX1
AINVX1_73 [gnd] _317_ d_lut_INVX1
AAOI22X1_12 [_316_ target_13_ target_12_ _317_] _318_ d_lut_AOI22X1
AINVX1_74 [target_13_] _319_ d_lut_INVX1
ANAND2X1_32 [gnd _319_] _320_ d_lut_NAND2X1
AINVX1_75 [target_12_] _321_ d_lut_INVX1
ANAND2X1_33 [gnd _321_] _322_ d_lut_NAND2X1
ANAND3X1_24 [_320_ _322_ _318_] _323_ d_lut_NAND3X1
ANOR2X1_51 [_315_ _323_] _324_ d_lut_NOR2X1
AXNOR2X1_7 [gnd target_11_] _325_ d_lut_XNOR2X1
AINVX2_5 [target_10_] _326_ d_lut_INVX2
AOR2X2_6 [_326_ gnd] _327_ d_lut_OR2X2
ANAND2X1_34 [gnd _326_] _328_ d_lut_NAND2X1
ANAND3X1_25 [_327_ _328_ _325_] _329_ d_lut_NAND3X1
AINVX1_76 [gnd] _330_ d_lut_INVX1
AINVX1_77 [gnd] _331_ d_lut_INVX1
AAOI22X1_13 [_330_ target_9_ target_8_ _331_] _332_ d_lut_AOI22X1
AINVX1_78 [target_9_] _333_ d_lut_INVX1
ANAND2X1_35 [gnd _333_] _334_ d_lut_NAND2X1
AINVX1_79 [target_8_] _335_ d_lut_INVX1
ANAND2X1_36 [gnd _335_] _336_ d_lut_NAND2X1
ANAND3X1_26 [_334_ _336_ _332_] _337_ d_lut_NAND3X1
ANOR2X1_52 [_337_ _329_] _338_ d_lut_NOR2X1
AAND2X2_7 [_338_ _324_] _339_ d_lut_AND2X2
AXOR2X1_4 [gnd target_7_] _340_ d_lut_XOR2X1
AXOR2X1_5 [target_6_ gnd] _341_ d_lut_XOR2X1
ANOR2X1_53 [_340_ _341_] _342_ d_lut_NOR2X1
AINVX1_80 [gnd] _343_ d_lut_INVX1
AINVX1_81 [gnd] _344_ d_lut_INVX1
AAOI22X1_14 [_343_ target_5_ target_4_ _344_] _345_ d_lut_AOI22X1
AINVX1_82 [target_5_] _346_ d_lut_INVX1
AINVX1_83 [target_4_] _347_ d_lut_INVX1
AAOI22X1_15 [_346_ gnd _347_ gnd] _348_ d_lut_AOI22X1
AAND2X2_8 [_345_ _348_] _349_ d_lut_AND2X2
ANAND2X1_37 [_342_ _349_] _350_ d_lut_NAND2X1
ANOR2X1_54 [target_3_ gnd] _351_ d_lut_NOR2X1
AINVX1_84 [_351_] _352_ d_lut_INVX1
ANAND2X1_38 [target_3_ gnd] _353_ d_lut_NAND2X1
AXOR2X1_6 [target_2_ gnd] _354_ d_lut_XOR2X1
AAOI21X1_41 [_352_ _353_ _354_] _355_ d_lut_AOI21X1
AINVX1_85 [gnd] _356_ d_lut_INVX1
ANAND2X1_39 [target_1_ _356_] _357_ d_lut_NAND2X1
ANOR2X1_55 [target_1_ _356_] _358_ d_lut_NOR2X1
AINVX1_86 [hash_array2_1] _359_ d_lut_INVX1
ANOR2X1_56 [target_0_ _359_] _360_ d_lut_NOR2X1
AOAI21X1_45 [_358_ _360_ _357_] _361_ d_lut_OAI21X1
ANAND2X1_40 [_361_ _355_] _362_ d_lut_NAND2X1
AINVX1_87 [target_3_] _363_ d_lut_INVX1
ANOR2X1_57 [gnd _363_] _364_ d_lut_NOR2X1
ANAND2X1_41 [gnd _363_] _365_ d_lut_NAND2X1
AINVX1_88 [target_2_] _366_ d_lut_INVX1
ANOR2X1_58 [gnd _366_] _367_ d_lut_NOR2X1
AAOI21X1_42 [_365_ _367_ _364_] _255_ d_lut_AOI21X1
AAOI21X1_43 [_255_ _362_ _350_] _256_ d_lut_AOI21X1
AXNOR2X1_8 [gnd target_7_] _257_ d_lut_XNOR2X1
AXNOR2X1_9 [target_6_ gnd] _258_ d_lut_XNOR2X1
ANAND2X1_42 [_257_ _258_] _259_ d_lut_NAND2X1
AOAI22X1_3 [_346_ gnd _347_ gnd] _260_ d_lut_OAI22X1
AOAI21X1_46 [_343_ target_5_ _260_] _261_ d_lut_OAI21X1
AINVX1_89 [target_7_] _262_ d_lut_INVX1
ANOR2X1_59 [gnd _262_] _263_ d_lut_NOR2X1
AINVX1_90 [target_6_] _264_ d_lut_INVX1
ANOR2X1_60 [gnd _264_] _265_ d_lut_NOR2X1
AAOI21X1_44 [_265_ _257_ _263_] _266_ d_lut_AOI21X1
AOAI21X1_47 [_259_ _261_ _266_] _267_ d_lut_OAI21X1
AOAI21X1_48 [_256_ _267_ _339_] _268_ d_lut_OAI21X1
AINVX1_91 [target_11_] _269_ d_lut_INVX1
ANOR2X1_61 [gnd _269_] _270_ d_lut_NOR2X1
ANOR2X1_62 [gnd _326_] _271_ d_lut_NOR2X1
AAOI21X1_45 [_271_ _325_ _270_] _272_ d_lut_AOI21X1
AOAI22X1_4 [_333_ gnd _335_ gnd] _273_ d_lut_OAI22X1
AOAI21X1_49 [_330_ target_9_ _273_] _274_ d_lut_OAI21X1
AOAI21X1_50 [_329_ _274_ _272_] _275_ d_lut_OAI21X1
ANOR2X1_63 [target_13_ _316_] _276_ d_lut_NOR2X1
AOR2X2_7 [_318_ _276_] _277_ d_lut_OR2X2