* NGSPICE file created from area_sys.ext - technology: scmos

* Black-box entry subcircuit for NOR2X1 abstract view
.subckt NOR2X1 A B gnd Y vdd
.ends

* Black-box entry subcircuit for INVX2 abstract view
.subckt INVX2 A gnd Y vdd
.ends

* Black-box entry subcircuit for FILL abstract view
.subckt FILL gnd vdd
.ends

* Black-box entry subcircuit for OAI21X1 abstract view
.subckt OAI21X1 A B C gnd Y vdd
.ends

* Black-box entry subcircuit for XNOR2X1 abstract view
.subckt XNOR2X1 A B gnd Y vdd
.ends

* Black-box entry subcircuit for AOI21X1 abstract view
.subckt AOI21X1 A B C gnd Y vdd
.ends

* Black-box entry subcircuit for OR2X2 abstract view
.subckt OR2X2 A B gnd Y vdd
.ends

* Black-box entry subcircuit for DFFPOSX1 abstract view
.subckt DFFPOSX1 Q CLK D gnd vdd
.ends

* Black-box entry subcircuit for NAND2X1 abstract view
.subckt NAND2X1 A B gnd Y vdd
.ends

* Black-box entry subcircuit for BUFX2 abstract view
.subckt BUFX2 A gnd Y vdd
.ends

* Black-box entry subcircuit for INVX1 abstract view
.subckt INVX1 A gnd Y vdd
.ends

* Black-box entry subcircuit for OAI22X1 abstract view
.subckt OAI22X1 A B C D gnd Y vdd
.ends

* Black-box entry subcircuit for NAND3X1 abstract view
.subckt NAND3X1 A B C gnd Y vdd
.ends

* Black-box entry subcircuit for AND2X2 abstract view
.subckt AND2X2 A B gnd Y vdd
.ends

* Black-box entry subcircuit for BUFX4 abstract view
.subckt BUFX4 A gnd Y vdd
.ends

* Black-box entry subcircuit for XOR2X1 abstract view
.subckt XOR2X1 A B gnd Y vdd
.ends

* Black-box entry subcircuit for NOR3X1 abstract view
.subckt NOR3X1 A B C gnd Y vdd
.ends

* Black-box entry subcircuit for AOI22X1 abstract view
.subckt AOI22X1 A B C D gnd Y vdd
.ends

* Black-box entry subcircuit for INVX4 abstract view
.subckt INVX4 A gnd Y vdd
.ends

* Black-box entry subcircuit for CLKBUF1 abstract view
.subckt CLKBUF1 A gnd Y vdd
.ends

* Black-box entry subcircuit for MUX2X1 abstract view
.subckt MUX2X1 A B S gnd Y vdd
.ends

* Black-box entry subcircuit for INVX8 abstract view
.subckt INVX8 A gnd Y vdd
.ends

.subckt area_sys vdd gnd clk reset block0[0] block0[1] block0[2] block0[3] block0[4]
+ block0[5] block0[6] block0[7] block1[0] block1[1] block1[2] block1[3] block1[4]
+ block1[5] block1[6] block1[7] block2[0] block2[1] block2[2] block2[3] block2[4]
+ block2[5] block2[6] block2[7] block3[0] block3[1] block3[2] block3[3] block3[4]
+ block3[5] block3[6] block3[7] block4[0] block4[1] block4[2] block4[3] block4[4]
+ block4[5] block4[6] block4[7] block5[0] block5[1] block5[2] block5[3] block5[4]
+ block5[5] block5[6] block5[7] block6[0] block6[1] block6[2] block6[3] block6[4]
+ block6[5] block6[6] block6[7] block7[0] block7[1] block7[2] block7[3] block7[4]
+ block7[5] block7[6] block7[7] block8[0] block8[1] block8[2] block8[3] block8[4]
+ block8[5] block8[6] block8[7] block9[0] block9[1] block9[2] block9[3] block9[4]
+ block9[5] block9[6] block9[7] block10[0] block10[1] block10[2] block10[3] block10[4]
+ block10[5] block10[6] block10[7] block11[0] block11[1] block11[2] block11[3] block11[4]
+ block11[5] block11[6] block11[7] start target[0] target[1] target[2] target[3] target[4]
+ target[5] target[6] target[7] target[8] target[9] target[10] target[11] target[12]
+ target[13] target[14] target[15] nonce0[0] nonce0[1] nonce0[2] nonce0[3] nonce0[4]
+ nonce0[5] nonce0[6] nonce0[7] nonce1[0] nonce1[1] nonce1[2] nonce1[3] nonce1[4]
+ nonce1[5] nonce1[6] nonce1[7] nonce2[0] nonce2[1] nonce2[2] nonce2[3] nonce2[4]
+ nonce2[5] nonce2[6] nonce2[7] nonce3[0] nonce3[1] nonce3[2] nonce3[3] nonce3[4]
+ nonce3[5] nonce3[6] nonce3[7] finish
XNOR2X1_62 gnd OR2X2_6/A gnd NOR2X1_62/Y vdd NOR2X1
XINVX2_11 OR2X2_23/B gnd INVX2_11/Y vdd INVX2
XFILL_12_2_1 gnd vdd FILL
XFILL_14_0_0 gnd vdd FILL
XNOR2X1_26 NOR2X1_26/A NOR2X1_25/Y gnd NOR2X1_26/Y vdd NOR2X1
XOAI21X1_154 INVX4_5/Y INVX1_212/Y INVX4_4/Y gnd INVX1_215/A vdd OAI21X1
XNOR2X1_187 INVX4_3/Y NOR2X1_182/B gnd NOR2X1_187/Y vdd NOR2X1
XOAI21X1_118 INVX1_180/Y OAI21X1_117/Y OAI21X1_116/Y gnd OAI21X1_118/Y vdd OAI21X1
XNOR2X1_151 BUFX4_47/Y NOR2X1_117/B gnd OAI22X1_8/D vdd NOR2X1
XXNOR2X1_25 OR2X2_22/A OR2X2_23/B gnd AOI21X1_82/A vdd XNOR2X1
XNOR2X1_115 BUFX4_18/Y NAND2X1_80/Y gnd NOR2X1_115/Y vdd NOR2X1
XAOI21X1_94 AOI21X1_94/A AOI21X1_94/B INVX8_3/Y gnd AOI21X1_94/Y vdd AOI21X1
XAOI21X1_58 AOI21X1_58/A AOI21X1_58/B AOI21X1_58/C gnd AOI21X1_59/A vdd AOI21X1
XFILL_1_1_0 gnd vdd FILL
XOR2X2_11 OR2X2_11/A XOR2X1_7/B gnd OR2X2_11/Y vdd OR2X2
XFILL_9_1 gnd vdd FILL
XDFFPOSX1_2 INVX1_39/A CLKBUF1_9/Y DFFPOSX1_2/D gnd vdd DFFPOSX1
XNAND2X1_124 INVX2_14/Y INVX2_15/Y gnd NOR2X1_180/A vdd NAND2X1
XAOI21X1_22 INVX1_31/Y AOI22X1_1/B OR2X2_1/A gnd AOI21X1_22/Y vdd AOI21X1
XDFFPOSX1_88 NAND3X1_5/A CLKBUF1_6/Y NOR2X1_72/Y gnd vdd DFFPOSX1
XOAI21X1_70 NAND2X1_56/B INVX1_108/Y NOR2X1_70/Y gnd OAI21X1_70/Y vdd OAI21X1
XNAND2X1_85 NOR2X1_120/Y INVX2_12/Y gnd NOR2X1_155/B vdd NAND2X1
XBUFX2_25 INVX1_16/A gnd nonce2[7] vdd BUFX2
XBUFX2_3 BUFX2_3/A gnd nonce0[1] vdd BUFX2
XDFFPOSX1_118 AND2X2_28/A CLKBUF1_4/Y AND2X2_27/Y gnd vdd DFFPOSX1
XNAND2X1_49 INVX1_86/A INVX1_96/Y gnd AOI21X1_48/B vdd NAND2X1
XFILL_6_3_1 gnd vdd FILL
XDFFPOSX1_52 INVX1_103/A CLKBUF1_5/Y AOI21X1_9/Y gnd vdd DFFPOSX1
XOAI21X1_34 NOR2X1_48/B OAI21X1_33/Y OAI21X1_34/C gnd AOI21X1_40/C vdd OAI21X1
XFILL_8_1_0 gnd vdd FILL
XDFFPOSX1_16 BUFX2_7/A CLKBUF1_11/Y AOI21X1_22/Y gnd vdd DFFPOSX1
XNAND2X1_13 gnd INVX1_47/Y gnd NAND3X1_20/B vdd NAND2X1
XNAND2X1_2 BUFX4_44/Y INVX1_18/A gnd AOI22X1_1/B vdd NAND2X1
XINVX1_192 INVX1_192/A gnd MUX2X1_4/S vdd INVX1
XOAI22X1_1 INVX1_54/Y gnd INVX1_55/Y gnd gnd OAI22X1_1/Y vdd OAI22X1
XNAND3X1_18 INVX1_37/Y OR2X2_2/A INVX1_38/Y gnd NAND3X1_18/Y vdd NAND3X1
XINVX1_74 target[13] gnd INVX1_74/Y vdd INVX1
XAOI21X1_108 INVX1_215/Y AOI21X1_107/Y AOI21X1_106/Y gnd AOI21X1_108/Y vdd AOI21X1
XINVX1_156 INVX1_156/A gnd INVX1_156/Y vdd INVX1
XINVX1_38 INVX1_38/A gnd INVX1_38/Y vdd INVX1
XNOR2X1_99 INVX1_110/A NOR2X1_99/B gnd NOR2X1_99/Y vdd NOR2X1
XINVX1_120 INVX1_120/A gnd INVX1_120/Y vdd INVX1
XAND2X2_24 OR2X2_23/A OR2X2_23/B gnd AND2X2_24/Y vdd AND2X2
XBUFX4_45 reset gnd BUFX4_45/Y vdd BUFX4
XNOR2X1_63 target[13] INVX1_72/Y gnd OR2X2_7/B vdd NOR2X1
XINVX2_12 INVX2_12/A gnd INVX2_12/Y vdd INVX2
XNOR2X1_27 INVX1_34/A NAND2X1_6/Y gnd AND2X2_3/A vdd NOR2X1
XFILL_14_0_1 gnd vdd FILL
XOAI21X1_155 INVX4_5/Y INVX1_215/A AOI21X1_105/Y gnd NOR2X1_203/B vdd OAI21X1
XNOR2X1_188 AND2X2_34/B block9[0] gnd XOR2X1_16/A vdd NOR2X1
XOAI21X1_119 INVX1_181/Y NOR2X1_160/Y NOR2X1_152/Y gnd OAI21X1_119/Y vdd OAI21X1
XNOR2X1_152 BUFX4_48/Y NOR2X1_118/B gnd NOR2X1_152/Y vdd NOR2X1
XXNOR2X1_26 XNOR2X1_26/A INVX4_5/A gnd XNOR2X1_26/Y vdd XNOR2X1
XFILL_13_3_0 gnd vdd FILL
XNOR2X1_116 OR2X2_23/A INVX1_149/Y gnd NOR2X1_116/Y vdd NOR2X1
XFILL_1_1_1 gnd vdd FILL
XAOI21X1_59 AOI21X1_59/A AOI21X1_59/B AOI21X1_59/C gnd AOI21X1_59/Y vdd AOI21X1
XAOI21X1_95 AOI21X1_95/A AOI21X1_95/B INVX8_3/Y gnd AOI21X1_95/Y vdd AOI21X1
XOR2X2_12 BUFX4_9/Y OR2X2_12/B gnd OR2X2_12/Y vdd OR2X2
XFILL_9_2 gnd vdd FILL
XAOI21X1_23 INVX1_32/Y AOI22X1_1/B OR2X2_1/A gnd AOI21X1_23/Y vdd AOI21X1
XNAND2X1_125 XOR2X1_12/A NOR2X1_176/Y gnd AOI21X1_90/B vdd NAND2X1
XDFFPOSX1_3 NAND2X1_1/A CLKBUF1_12/Y NOR2X1_24/Y gnd vdd DFFPOSX1
XOAI21X1_71 INVX1_120/Y INVX1_40/A BUFX2_34/A gnd AOI21X1_56/C vdd OAI21X1
XDFFPOSX1_89 NAND3X1_6/A CLKBUF1_6/Y NOR2X1_73/Y gnd vdd DFFPOSX1
XNAND2X1_86 AND2X2_15/B NAND2X1_83/B gnd OR2X2_19/A vdd NAND2X1
XBUFX2_26 INVX1_1/A gnd nonce3[0] vdd BUFX2
XNAND2X1_50 NOR2X1_68/A OR2X2_17/B gnd NAND2X1_50/Y vdd NAND2X1
XDFFPOSX1_119 AND2X2_29/B CLKBUF1_9/Y NAND2X1_120/Y gnd vdd DFFPOSX1
XDFFPOSX1_53 OAI22X1_6/B CLKBUF1_5/Y AOI21X1_10/Y gnd vdd DFFPOSX1
XFILL_8_1_1 gnd vdd FILL
XOAI21X1_35 AOI21X1_34/Y AOI21X1_40/C AND2X2_4/Y gnd OAI21X1_35/Y vdd OAI21X1
XBUFX2_4 BUFX2_4/A gnd nonce0[2] vdd BUFX2
XDFFPOSX1_17 BUFX2_8/A CLKBUF1_12/Y AOI21X1_23/Y gnd vdd DFFPOSX1
XNAND2X1_14 gnd INVX2_3/Y gnd NAND2X1_14/Y vdd NAND2X1
XINVX1_193 INVX1_86/A gnd INVX1_193/Y vdd INVX1
XINVX1_75 target[12] gnd INVX1_75/Y vdd INVX1
XNAND3X1_19 NAND3X1_19/A NAND3X1_19/B AOI22X1_5/Y gnd NOR2X1_34/A vdd NAND3X1
XNAND2X1_3 start NAND2X1_1/A gnd INVX1_34/A vdd NAND2X1
XOAI22X1_2 INVX1_50/Y gnd INVX1_51/Y gnd gnd OAI22X1_2/Y vdd OAI22X1
XAOI21X1_109 INVX2_18/Y INVX2_21/Y OAI21X1_156/Y gnd AOI21X1_109/Y vdd AOI21X1
XINVX1_157 INVX1_187/A gnd INVX1_157/Y vdd INVX1
XINVX1_39 INVX1_39/A gnd INVX1_39/Y vdd INVX1
XBUFX4_46 reset gnd INVX8_4/A vdd BUFX4
XINVX1_121 INVX1_121/A gnd INVX1_121/Y vdd INVX1
XAND2X2_25 INVX8_2/A OR2X2_22/B gnd AND2X2_25/Y vdd AND2X2
XBUFX4_10 BUFX4_9/A gnd OR2X2_10/A vdd BUFX4
XNOR2X1_64 NOR2X1_64/A NOR2X1_64/B gnd NOR2X1_64/Y vdd NOR2X1
XNOR2X1_28 AND2X2_3/A NOR2X1_28/B gnd NOR2X1_28/Y vdd NOR2X1
XOAI21X1_156 INVX2_18/Y INVX2_21/Y INVX4_5/A gnd OAI21X1_156/Y vdd OAI21X1
XINVX2_13 OR2X2_22/B gnd OR2X2_20/B vdd INVX2
XNOR2X1_189 INVX4_3/Y NOR2X1_189/B gnd NOR2X1_189/Y vdd NOR2X1
XNOR2X1_153 BUFX4_49/Y NOR2X1_153/B gnd AOI21X1_74/A vdd NOR2X1
XOAI21X1_120 OAI21X1_118/Y NOR2X1_152/Y OAI21X1_119/Y gnd OAI22X1_8/C vdd OAI21X1
XNOR2X1_117 BUFX4_19/Y NOR2X1_117/B gnd INVX1_151/A vdd NOR2X1
XFILL_13_3_1 gnd vdd FILL
XFILL_15_1_0 gnd vdd FILL
XXOR2X1_1 gnd target[7] gnd XOR2X1_1/Y vdd XOR2X1
XAOI21X1_96 AOI21X1_96/A AOI21X1_96/B INVX8_3/Y gnd AOI21X1_96/Y vdd AOI21X1
XAOI21X1_60 AOI21X1_60/A XNOR2X1_14/Y NOR2X1_103/Y gnd AOI21X1_60/Y vdd AOI21X1
XNAND2X1_126 XOR2X1_12/A NOR2X1_177/Y gnd AOI21X1_91/B vdd NAND2X1
XOAI21X1_72 NOR2X1_99/Y OAI21X1_72/B OAI21X1_72/C gnd NAND2X1_68/A vdd OAI21X1
XFILL_2_2_0 gnd vdd FILL
XDFFPOSX1_90 NAND3X1_7/A CLKBUF1_1/Y NOR2X1_74/Y gnd vdd DFFPOSX1
XOR2X2_13 BUFX4_9/Y OR2X2_13/B gnd OR2X2_13/Y vdd OR2X2
XNAND2X1_87 block3[0] BUFX4_34/Y gnd INVX1_154/A vdd NAND2X1
XAOI21X1_24 INVX1_33/Y AOI22X1_1/B OR2X2_1/A gnd AOI21X1_24/Y vdd AOI21X1
XBUFX2_27 INVX1_2/A gnd nonce3[1] vdd BUFX2
XDFFPOSX1_4 NOR2X1_1/A CLKBUF1_12/Y NOR2X1_26/Y gnd vdd DFFPOSX1
XDFFPOSX1_120 AND2X2_27/B CLKBUF1_4/Y NAND2X1_119/Y gnd vdd DFFPOSX1
XNAND2X1_51 NAND2X1_50/Y BUFX4_11/Y gnd NOR2X1_70/B vdd NAND2X1
XDFFPOSX1_54 OR2X2_15/B CLKBUF1_1/Y AOI21X1_11/Y gnd vdd DFFPOSX1
XBUFX2_5 BUFX2_5/A gnd nonce0[3] vdd BUFX2
XOAI21X1_36 INVX1_48/Y target[9] OAI22X1_2/Y gnd OAI21X1_36/Y vdd OAI21X1
XDFFPOSX1_18 BUFX2_9/A CLKBUF1_11/Y AOI21X1_24/Y gnd vdd DFFPOSX1
XNAND2X1_15 gnd INVX1_50/Y gnd NAND3X1_22/A vdd NAND2X1
XFILL_9_2_0 gnd vdd FILL
XFILL_13_1 gnd vdd FILL
XINVX1_194 OR2X2_1/B gnd INVX1_194/Y vdd INVX1
XOAI22X1_3 INVX1_82/Y gnd INVX1_83/Y gnd gnd OAI22X1_3/Y vdd OAI22X1
XINVX1_76 gnd gnd INVX1_76/Y vdd INVX1
XNAND3X1_20 NAND3X1_20/A NAND3X1_20/B OR2X2_4/A gnd NOR2X1_34/B vdd NAND3X1
XNAND2X1_4 NAND2X1_4/A INVX1_34/A gnd NAND2X1_4/Y vdd NAND2X1
XINVX1_40 INVX1_40/A gnd INVX1_40/Y vdd INVX1
XINVX1_158 INVX1_158/A gnd INVX1_158/Y vdd INVX1
XAOI21X1_110 AND2X2_34/B AOI21X1_110/B OAI22X1_9/Y gnd AOI21X1_111/B vdd AOI21X1
XINVX1_122 INVX1_122/A gnd INVX1_122/Y vdd INVX1
XBUFX4_47 INVX8_2/Y gnd BUFX4_47/Y vdd BUFX4
XBUFX4_11 BUFX4_9/A gnd BUFX4_11/Y vdd BUFX4
XAND2X2_26 OR2X2_20/A OR2X2_20/B gnd NOR3X1_5/A vdd AND2X2
XNOR2X1_65 NOR2X1_65/A NOR2X1_65/B gnd NOR2X1_65/Y vdd NOR2X1
XINVX2_14 OR2X2_23/B gnd INVX2_14/Y vdd INVX2
XNOR2X1_29 NOR2X1_25/Y OR2X2_2/Y gnd NOR2X1_29/Y vdd NOR2X1
XOAI21X1_157 AOI21X1_109/Y AND2X2_34/Y NOR2X1_197/Y gnd OAI21X1_157/Y vdd OAI21X1
XNOR2X1_190 XOR2X1_11/A block8[0] gnd XOR2X1_17/A vdd NOR2X1
XNOR2X1_154 BUFX4_49/Y NAND2X1_84/Y gnd INVX1_172/A vdd NOR2X1
XOAI21X1_121 AND2X2_19/B BUFX4_31/Y OAI22X1_8/D gnd OAI22X1_8/B vdd OAI21X1
XFILL_15_1_1 gnd vdd FILL
XAOI21X1_97 AOI21X1_97/A AOI21X1_97/B INVX8_3/Y gnd AOI21X1_97/Y vdd AOI21X1
XNOR2X1_118 BUFX4_20/Y NOR2X1_118/B gnd INVX1_152/A vdd NOR2X1
XXOR2X1_2 target[6] gnd gnd XOR2X1_2/Y vdd XOR2X1
XAOI21X1_61 AOI21X1_61/A NAND3X1_33/C NOR2X1_105/Y gnd OAI21X1_77/C vdd AOI21X1
XNAND2X1_127 OR2X2_23/B INVX2_15/Y gnd NOR2X1_192/A vdd NAND2X1
XFILL_2_2_1 gnd vdd FILL
XFILL_4_0_0 gnd vdd FILL
XNAND2X1_88 AND2X2_15/B NAND2X1_93/B gnd NOR2X1_156/B vdd NAND2X1
XOR2X2_14 BUFX4_9/Y OR2X2_14/B gnd OR2X2_14/Y vdd OR2X2
XAOI21X1_25 NAND2X1_8/B OR2X2_2/A AOI21X1_25/C gnd DFFPOSX1_7/D vdd AOI21X1
XBUFX2_28 INVX1_3/A gnd nonce3[2] vdd BUFX2
XDFFPOSX1_5 NAND2X1_6/A CLKBUF1_11/Y NOR2X1_28/Y gnd vdd DFFPOSX1
XINVX2_1 INVX2_1/A gnd INVX2_1/Y vdd INVX2
XOAI21X1_73 INVX1_132/Y INVX1_134/A OAI22X1_5/Y gnd OAI21X1_74/B vdd OAI21X1
XNAND2X1_52 NOR3X1_1/C NOR2X1_70/Y gnd NOR2X1_71/B vdd NAND2X1
XDFFPOSX1_91 NAND3X1_8/A CLKBUF1_1/Y NOR2X1_76/Y gnd vdd DFFPOSX1
XDFFPOSX1_55 INVX1_106/A CLKBUF1_1/Y AOI21X1_12/Y gnd vdd DFFPOSX1
XBUFX2_6 BUFX2_6/A gnd nonce0[4] vdd BUFX2
XOAI21X1_37 NOR2X1_35/B OAI21X1_36/Y AOI21X1_36/Y gnd OAI21X1_37/Y vdd OAI21X1
XDFFPOSX1_121 AOI21X1_66/B CLKBUF1_3/Y AND2X2_30/Y gnd vdd DFFPOSX1
XDFFPOSX1_19 INVX1_17/A CLKBUF1_11/Y AOI22X1_3/Y gnd vdd DFFPOSX1
XNAND2X1_16 gnd INVX1_51/Y gnd NAND3X1_22/B vdd NAND2X1
XFILL_9_2_1 gnd vdd FILL
XFILL_13_2 gnd vdd FILL
XINVX1_77 gnd gnd INVX1_77/Y vdd INVX1
XOAI22X1_4 INVX1_78/Y gnd INVX1_79/Y gnd gnd OAI22X1_4/Y vdd OAI22X1
XNAND2X1_5 NOR2X1_1/A INVX1_34/Y gnd INVX1_35/A vdd NAND2X1
XINVX1_195 INVX1_195/A gnd INVX1_195/Y vdd INVX1
XINVX1_159 block0[0] gnd INVX1_159/Y vdd INVX1
XINVX1_41 gnd gnd INVX1_41/Y vdd INVX1
XNAND3X1_21 OR2X2_3/Y NAND2X1_14/Y XNOR2X1_1/Y gnd NOR2X1_35/B vdd NAND3X1
XAOI21X1_111 OAI21X1_157/Y AOI21X1_111/B INVX2_17/Y gnd AOI21X1_111/Y vdd AOI21X1
XINVX1_123 INVX1_118/A gnd INVX1_123/Y vdd INVX1
XBUFX4_48 INVX8_2/Y gnd BUFX4_48/Y vdd BUFX4
XAND2X2_27 BUFX2_34/A AND2X2_27/B gnd AND2X2_27/Y vdd AND2X2
XBUFX4_12 BUFX4_9/A gnd OR2X2_11/A vdd BUFX4
XNOR2X1_66 NOR2X1_66/A NOR2X1_66/B gnd NOR2X1_66/Y vdd NOR2X1
XINVX2_15 OR2X2_22/A gnd INVX2_15/Y vdd INVX2
XNOR2X1_30 NOR2X1_30/A NOR2X1_30/B gnd NOR2X1_30/Y vdd NOR2X1
XOAI21X1_158 INVX1_211/Y INVX4_5/A OAI21X1_158/C gnd AOI21X1_110/B vdd OAI21X1
XNOR2X1_191 XOR2X1_12/A block7[0] gnd NOR2X1_191/Y vdd NOR2X1
XNOR2X1_155 BUFX4_49/Y NOR2X1_155/B gnd NOR2X1_155/Y vdd NOR2X1
XOAI21X1_122 OAI22X1_8/Y NOR2X1_150/Y AOI21X1_75/Y gnd AOI21X1_77/B vdd OAI21X1
XAOI21X1_98 AOI21X1_98/A AOI21X1_98/B INVX8_3/Y gnd AOI21X1_98/Y vdd AOI21X1
XNOR2X1_119 INVX2_11/Y INVX2_10/Y gnd NAND2X1_83/B vdd NOR2X1
XXOR2X1_3 target[2] gnd gnd XOR2X1_3/Y vdd XOR2X1
XAOI21X1_62 INVX2_8/Y INVX1_121/A NAND3X1_31/B gnd AOI21X1_62/Y vdd AOI21X1
XFILL_16_2_0 gnd vdd FILL
XBUFX2_29 INVX1_4/A gnd nonce3[3] vdd BUFX2
XFILL_4_0_1 gnd vdd FILL
XOR2X2_15 INVX2_9/Y OR2X2_15/B gnd OR2X2_15/Y vdd OR2X2
XAOI21X1_26 NAND2X1_8/B OR2X2_2/A NAND2X1_8/A gnd NOR2X1_30/B vdd AOI21X1
XNAND2X1_128 XOR2X1_13/A NOR2X1_178/Y gnd AOI21X1_92/B vdd NAND2X1
XDFFPOSX1_6 AND2X2_3/B CLKBUF1_9/Y NOR2X1_29/Y gnd vdd DFFPOSX1
XOAI21X1_74 NAND2X1_70/Y OAI21X1_74/B AOI21X1_60/Y gnd OAI21X1_74/Y vdd OAI21X1
XDFFPOSX1_92 NAND3X1_9/A CLKBUF1_1/Y NOR2X1_77/Y gnd vdd DFFPOSX1
XNAND2X1_89 BUFX4_50/Y AND2X2_15/Y gnd INVX1_155/A vdd NAND2X1
XBUFX2_7 BUFX2_7/A gnd nonce0[5] vdd BUFX2
XINVX2_2 target[15] gnd INVX2_2/Y vdd INVX2
XNAND2X1_53 NAND2X1_53/A NOR2X1_70/Y gnd NOR2X1_72/B vdd NAND2X1
XDFFPOSX1_122 INVX1_202/A CLKBUF1_2/Y NOR3X1_6/Y gnd vdd DFFPOSX1
XNAND2X1_17 NOR2X1_36/Y AND2X2_5/Y gnd AOI21X1_34/C vdd NAND2X1
XDFFPOSX1_56 INVX1_107/A CLKBUF1_8/Y AOI21X1_13/Y gnd vdd DFFPOSX1
XOAI21X1_38 INVX2_2/Y gnd BUFX4_44/Y gnd NOR2X1_47/A vdd OAI21X1
XFILL_3_3_0 gnd vdd FILL
XDFFPOSX1_20 BUFX2_11/A CLKBUF1_11/Y NOR2X1_17/Y gnd vdd DFFPOSX1
XOAI22X1_5 INVX1_134/Y OAI22X1_5/B OAI22X1_5/C INVX1_99/A gnd OAI22X1_5/Y vdd OAI22X1
XINVX1_78 target[9] gnd INVX1_78/Y vdd INVX1
XNAND2X1_6 NAND2X1_6/A NOR2X1_1/A gnd NAND2X1_6/Y vdd NAND2X1
XINVX1_160 INVX1_160/A gnd INVX1_160/Y vdd INVX1
XINVX1_196 OR2X2_23/A gnd INVX1_196/Y vdd INVX1
XINVX1_42 gnd gnd INVX1_42/Y vdd INVX1
XNAND3X1_22 NAND3X1_22/A NAND3X1_22/B AOI22X1_7/Y gnd NOR2X1_35/A vdd NAND3X1
XAOI21X1_112 gnd OAI21X1_161/Y AOI21X1_112/C gnd AND2X2_36/A vdd AOI21X1
XBUFX4_49 INVX8_2/Y gnd BUFX4_49/Y vdd BUFX4
XINVX1_124 INVX1_124/A gnd INVX1_124/Y vdd INVX1
XAND2X2_28 AND2X2_28/A AND2X2_28/B gnd AND2X2_28/Y vdd AND2X2
XBUFX4_13 BUFX4_16/A gnd BUFX4_13/Y vdd BUFX4
XNOR2X1_67 gnd INVX1_95/Y gnd NOR2X1_67/Y vdd NOR2X1
XINVX2_16 gnd gnd MUX2X1_7/A vdd INVX2
XNOR2X1_31 NOR2X1_31/A NOR2X1_31/B gnd NOR2X1_31/Y vdd NOR2X1
XOAI21X1_159 AND2X2_35/Y NOR2X1_205/Y gnd gnd OAI21X1_159/Y vdd OAI21X1
XFILL_11_0_0 gnd vdd FILL
XNOR2X1_192 NOR2X1_192/A NAND3X1_41/Y gnd NOR2X1_192/Y vdd NOR2X1
XNOR2X1_156 BUFX4_50/Y NOR2X1_156/B gnd INVX1_177/A vdd NOR2X1
XOAI21X1_123 AND2X2_20/Y NOR2X1_165/Y NOR2X1_162/Y gnd OAI21X1_124/C vdd OAI21X1
XFILL_4_1 gnd vdd FILL
XAOI21X1_99 AOI21X1_99/A AOI21X1_99/B INVX8_3/Y gnd AOI21X1_99/Y vdd AOI21X1
XNOR2X1_120 OR2X2_22/B INVX1_150/Y gnd NOR2X1_120/Y vdd NOR2X1
XAOI21X1_63 AND2X2_11/B OAI21X1_77/Y AOI21X1_63/C gnd OAI21X1_83/C vdd AOI21X1
XXOR2X1_4 gnd target[7] gnd XOR2X1_4/Y vdd XOR2X1
XFILL_16_2_1 gnd vdd FILL
XOR2X2_16 OR2X2_16/A OR2X2_16/B gnd OR2X2_16/Y vdd OR2X2
XAOI21X1_27 INVX1_36/Y OR2X2_2/A NAND2X1_9/A gnd NOR2X1_31/B vdd AOI21X1
XDFFPOSX1_7 NAND2X1_8/B CLKBUF1_9/Y DFFPOSX1_7/D gnd vdd DFFPOSX1
XNAND2X1_129 block11[0] NOR2X1_179/Y gnd AOI21X1_93/B vdd NAND2X1
XBUFX2_30 INVX1_5/A gnd nonce3[4] vdd BUFX2
XOAI21X1_75 AOI21X1_59/Y OAI21X1_74/Y AND2X2_11/Y gnd OAI21X1_75/Y vdd OAI21X1
XNAND2X1_90 block1[0] BUFX4_34/Y gnd INVX1_156/A vdd NAND2X1
XDFFPOSX1_93 NAND3X1_10/A CLKBUF1_5/Y NOR2X1_78/Y gnd vdd DFFPOSX1
XBUFX2_8 BUFX2_8/A gnd nonce0[6] vdd BUFX2
XINVX2_3 target[10] gnd INVX2_3/Y vdd INVX2
XNAND2X1_54 OAI22X1_5/B NOR3X1_1/Y gnd INVX1_100/A vdd NAND2X1
XDFFPOSX1_123 INVX1_201/A CLKBUF1_7/Y AOI21X1_101/Y gnd vdd DFFPOSX1
XDFFPOSX1_57 INVX1_124/A CLKBUF1_5/Y AOI21X1_14/Y gnd vdd DFFPOSX1
XOAI21X1_39 NOR2X1_34/A OR2X2_4/Y NOR2X1_47/Y gnd AOI21X1_38/C vdd OAI21X1
XNOR2X1_1 NOR2X1_1/A NOR2X1_1/B gnd NOR2X1_1/Y vdd NOR2X1
XDFFPOSX1_21 INVX1_20/A CLKBUF1_6/Y NOR2X1_18/Y gnd vdd DFFPOSX1
XNAND2X1_18 target[3] gnd gnd INVX1_65/A vdd NAND2X1
XFILL_3_3_1 gnd vdd FILL
XFILL_5_1_0 gnd vdd FILL
XNAND2X1_7 AND2X2_3/B AND2X2_3/A gnd NAND2X1_7/Y vdd NAND2X1
XINVX1_197 OR2X2_22/B gnd INVX1_197/Y vdd INVX1
XOAI22X1_6 OAI22X1_6/A OAI22X1_6/B INVX1_131/Y INVX1_103/A gnd OAI22X1_6/Y vdd OAI22X1
XINVX1_79 target[8] gnd INVX1_79/Y vdd INVX1
XNAND3X1_23 NAND3X1_23/A NAND3X1_23/B NAND3X1_23/C gnd NOR2X1_51/A vdd NAND3X1
XINVX1_161 INVX1_161/A gnd INVX1_161/Y vdd INVX1
XINVX1_43 target[14] gnd INVX1_43/Y vdd INVX1
XAND2X2_29 BUFX2_34/A AND2X2_29/B gnd AND2X2_29/Y vdd AND2X2
XBUFX4_50 INVX8_2/Y gnd BUFX4_50/Y vdd BUFX4
XINVX1_125 INVX1_107/A gnd INVX1_125/Y vdd INVX1
XNOR2X1_68 NOR2X1_68/A OR2X2_17/B gnd OR2X2_9/A vdd NOR2X1
XBUFX4_14 BUFX4_16/A gnd BUFX4_14/Y vdd BUFX4
XINVX2_17 INVX2_17/A gnd INVX2_17/Y vdd INVX2
XNOR2X1_32 NOR2X1_32/A INVX1_18/Y gnd NOR2X1_33/B vdd NOR2X1
XOAI21X1_160 AOI22X1_23/D gnd OAI21X1_159/Y gnd NAND2X1_149/B vdd OAI21X1
XNOR2X1_193 INVX1_40/A INVX1_205/Y gnd INVX2_17/A vdd NOR2X1
XFILL_11_0_1 gnd vdd FILL
XNOR2X1_157 INVX1_200/A INVX4_1/A gnd NOR2X1_157/Y vdd NOR2X1
XOAI21X1_124 BUFX4_47/Y NAND2X1_78/Y OAI21X1_124/C gnd AOI21X1_77/C vdd OAI21X1
XFILL_10_3_0 gnd vdd FILL
XNOR2X1_121 INVX8_2/A NOR2X1_159/B gnd NOR2X1_121/Y vdd NOR2X1
XAOI21X1_64 AOI21X1_64/A AOI21X1_64/B AOI21X1_64/C gnd OAI21X1_82/B vdd AOI21X1
XFILL_4_2 gnd vdd FILL
XXOR2X1_5 target[6] gnd gnd XOR2X1_5/Y vdd XOR2X1
XOR2X2_17 INVX8_4/A OR2X2_17/B gnd OR2X2_17/Y vdd OR2X2
XAOI21X1_28 OAI21X1_27/Y NAND3X1_18/Y BUFX4_4/Y gnd AOI21X1_28/Y vdd AOI21X1
XDFFPOSX1_8 NAND2X1_8/A CLKBUF1_12/Y NOR2X1_30/Y gnd vdd DFFPOSX1
XNAND2X1_130 XOR2X1_10/Y NOR2X1_180/Y gnd AOI21X1_94/B vdd NAND2X1
XOAI21X1_76 INVX1_128/Y OR2X2_13/B OAI22X1_6/Y gnd OAI21X1_76/Y vdd OAI21X1
XDFFPOSX1_94 NAND3X1_11/A CLKBUF1_5/Y NOR2X1_79/Y gnd vdd DFFPOSX1
XNAND2X1_91 BUFX4_50/Y AND2X2_16/Y gnd INVX1_158/A vdd NAND2X1
XBUFX2_31 INVX1_6/A gnd nonce3[5] vdd BUFX2
XBUFX2_9 BUFX2_9/A gnd nonce0[7] vdd BUFX2
XINVX2_4 target[15] gnd INVX2_4/Y vdd INVX2
XOAI21X1_40 INVX1_56/A INVX1_65/Y XNOR2X1_4/Y gnd NOR2X1_49/B vdd OAI21X1
XNAND2X1_55 OAI22X1_6/B NOR3X1_2/Y gnd INVX1_104/A vdd NAND2X1
XDFFPOSX1_124 INVX1_200/A CLKBUF1_7/Y AOI21X1_100/Y gnd vdd DFFPOSX1
XDFFPOSX1_58 INVX1_122/A CLKBUF1_8/Y AOI21X1_15/Y gnd vdd DFFPOSX1
XFILL_17_3_0 gnd vdd FILL
XNAND2X1_19 target[1] INVX1_57/Y gnd OAI21X1_32/C vdd NAND2X1
XFILL_5_1_1 gnd vdd FILL
XDFFPOSX1_22 INVX1_21/A CLKBUF1_11/Y NOR2X1_19/Y gnd vdd DFFPOSX1
XNOR2X1_2 start BUFX4_1/Y gnd OR2X2_1/A vdd NOR2X1
XINVX1_198 INVX1_198/A gnd INVX1_198/Y vdd INVX1
XINVX1_80 gnd gnd INVX1_80/Y vdd INVX1
XNAND2X1_8 NAND2X1_8/A NAND2X1_8/B gnd INVX1_36/A vdd NAND2X1
XOAI22X1_7 OAI22X1_7/A OAI22X1_7/B OAI22X1_7/C OAI22X1_7/D gnd OAI22X1_7/Y vdd OAI22X1
XNAND3X1_24 NAND3X1_24/A NAND2X1_33/Y OR2X2_7/A gnd NOR2X1_51/B vdd NAND3X1
XINVX1_162 INVX1_162/A gnd INVX1_162/Y vdd INVX1
XINVX1_44 gnd gnd INVX1_44/Y vdd INVX1
XAND2X2_30 INVX1_39/A AND2X2_30/B gnd AND2X2_30/Y vdd AND2X2
XINVX1_126 INVX1_117/A gnd INVX1_126/Y vdd INVX1
XNOR2X1_69 INVX1_120/A INVX1_97/Y gnd BUFX4_9/A vdd NOR2X1
XBUFX4_15 BUFX4_16/A gnd BUFX4_15/Y vdd BUFX4
XNOR2X1_33 NOR2X1_33/A NOR2X1_33/B gnd NOR2X1_33/Y vdd NOR2X1
XINVX2_18 INVX2_18/A gnd INVX2_18/Y vdd INVX2
XOAI21X1_161 INVX4_4/Y XOR2X1_11/A NAND2X1_150/Y gnd OAI21X1_161/Y vdd OAI21X1
XOR2X2_1 OR2X2_1/A OR2X2_1/B gnd OR2X2_1/Y vdd OR2X2
XNOR2X1_194 INVX4_5/A INVX2_17/Y gnd INVX1_206/A vdd NOR2X1
XNOR2X1_158 NOR2X1_158/A INVX4_1/A gnd NOR2X1_158/Y vdd NOR2X1
XOAI21X1_125 AND2X2_21/B BUFX4_30/Y NOR2X1_166/Y gnd NOR2X1_167/B vdd OAI21X1
XNOR2X1_122 NOR3X1_4/A NAND2X1_84/Y gnd AOI21X1_67/A vdd NOR2X1
XXOR2X1_6 target[2] gnd gnd XOR2X1_6/Y vdd XOR2X1
XFILL_10_3_1 gnd vdd FILL
XFILL_12_1_0 gnd vdd FILL
XAOI21X1_65 NOR2X1_109/Y AOI21X1_65/B OAI21X1_74/Y gnd OAI21X1_83/A vdd AOI21X1
XNAND2X1_131 OR2X2_23/A INVX1_197/Y gnd INVX1_198/A vdd NAND2X1
XDFFPOSX1_9 NAND2X1_9/A CLKBUF1_9/Y NOR2X1_31/Y gnd vdd DFFPOSX1
XBUFX2_32 INVX1_7/A gnd nonce3[6] vdd BUFX2
XNAND2X1_92 block0[0] INVX4_1/A gnd NAND3X1_35/A vdd NAND2X1
XOAI21X1_77 NOR2X1_96/B OAI21X1_76/Y OAI21X1_77/C gnd OAI21X1_77/Y vdd OAI21X1
XDFFPOSX1_95 NAND3X1_12/A CLKBUF1_5/Y NOR2X1_81/Y gnd vdd DFFPOSX1
XAOI21X1_29 INVX2_1/Y INVX1_39/Y OAI21X1_29/Y gnd AOI21X1_30/B vdd AOI21X1
XOR2X2_18 BUFX4_32/Y block8[0] gnd OR2X2_18/Y vdd OR2X2
XINVX2_5 target[10] gnd OR2X2_6/A vdd INVX2
XDFFPOSX1_125 INVX1_178/A CLKBUF1_2/Y AOI21X1_99/Y gnd vdd DFFPOSX1
XDFFPOSX1_59 INVX1_121/A CLKBUF1_5/Y AOI21X1_16/Y gnd vdd DFFPOSX1
XNAND2X1_56 NOR2X1_70/Y NAND2X1_56/B gnd NOR2X1_83/B vdd NAND2X1
XOAI21X1_41 NAND2X1_24/Y NAND2X1_27/Y OR2X2_8/A gnd AND2X2_6/A vdd OAI21X1
XFILL_17_3_1 gnd vdd FILL
XDFFPOSX1_23 BUFX2_14/A CLKBUF1_4/Y NOR2X1_20/Y gnd vdd DFFPOSX1
XNAND2X1_20 NAND2X1_20/A AOI21X1_32/Y gnd NAND2X1_20/Y vdd NAND2X1
XNOR2X1_3 INVX1_2/Y NOR2X1_3/B gnd NOR2X1_3/Y vdd NOR2X1
XINVX1_199 INVX1_199/A gnd INVX1_199/Y vdd INVX1
XFILL_6_2_0 gnd vdd FILL
XINVX1_81 gnd gnd INVX1_81/Y vdd INVX1
XNAND2X1_9 NAND2X1_9/A INVX1_36/Y gnd INVX1_38/A vdd NAND2X1
XOAI22X1_8 OAI22X1_8/A OAI22X1_8/B OAI22X1_8/C OAI22X1_8/D gnd OAI22X1_8/Y vdd OAI22X1
XNAND3X1_25 OR2X2_6/Y NAND3X1_25/B XNOR2X1_7/Y gnd NOR2X1_52/B vdd NAND3X1
XOAI22X1_10 INVX1_217/A INVX1_216/Y AND2X2_37/Y NOR2X1_206/Y gnd NOR3X1_7/C vdd OAI22X1
XINVX1_163 block7[0] gnd INVX1_163/Y vdd INVX1
XINVX1_45 gnd gnd INVX1_45/Y vdd INVX1
XINVX1_127 OR2X2_14/B gnd INVX1_127/Y vdd INVX1
XAND2X2_31 AND2X2_31/A INVX1_202/Y gnd NOR3X1_6/C vdd AND2X2
XBUFX4_16 BUFX4_16/A gnd BUFX4_16/Y vdd BUFX4
XNOR2X1_70 OR2X2_9/Y NOR2X1_70/B gnd NOR2X1_70/Y vdd NOR2X1
XINVX2_19 gnd gnd INVX2_19/Y vdd INVX2
XOR2X2_2 OR2X2_2/A OR2X2_2/B gnd OR2X2_2/Y vdd OR2X2
XNOR2X1_34 NOR2X1_34/A NOR2X1_34/B gnd AND2X2_4/B vdd NOR2X1
XNOR2X1_195 gnd INVX4_4/Y gnd INVX1_207/A vdd NOR2X1
XOAI21X1_162 INVX4_5/A XOR2X1_11/A INVX2_17/A gnd AOI21X1_112/C vdd OAI21X1
XNOR2X1_159 BUFX4_49/Y NOR2X1_159/B gnd AOI21X1_74/C vdd NOR2X1
XOAI21X1_126 AOI21X1_77/Y NOR2X1_167/Y INVX1_171/Y gnd AOI21X1_79/B vdd OAI21X1
XXOR2X1_7 XOR2X1_7/A XOR2X1_7/B gnd XOR2X1_7/Y vdd XOR2X1
XNOR2X1_123 BUFX4_18/Y NOR2X1_155/B gnd INVX1_153/A vdd NOR2X1
XFILL_12_1_1 gnd vdd FILL
XAOI21X1_66 AND2X2_27/B AOI21X1_66/B AOI21X1_66/C gnd AOI21X1_66/Y vdd AOI21X1
XNAND2X1_132 XOR2X1_11/Y NOR2X1_181/Y gnd AOI21X1_95/B vdd NAND2X1
XBUFX2_33 INVX1_8/A gnd nonce3[7] vdd BUFX2
XINVX2_6 INVX2_6/A gnd INVX2_6/Y vdd INVX2
XOR2X2_19 OR2X2_19/A BUFX4_50/Y gnd OR2X2_19/Y vdd OR2X2
XAOI21X1_30 BUFX4_13/Y AOI21X1_30/B AOI21X1_30/C gnd DFFPOSX1_2/D vdd AOI21X1
XOAI21X1_78 INVX2_8/Y INVX1_121/A BUFX4_45/Y gnd NOR2X1_108/A vdd OAI21X1
XNAND2X1_93 NOR2X1_120/Y NAND2X1_93/B gnd NOR2X1_153/B vdd NAND2X1
XFILL_1_0_0 gnd vdd FILL
XNAND2X1_57 OR2X2_9/B OR2X2_9/A gnd NAND2X1_57/Y vdd NAND2X1
XOAI21X1_42 NOR2X1_49/B OAI21X1_42/B AOI21X1_33/Y gnd OAI21X1_42/Y vdd OAI21X1
XDFFPOSX1_96 NAND3X1_13/A CLKBUF1_8/Y NOR2X1_82/Y gnd vdd DFFPOSX1
XDFFPOSX1_60 NAND2X1_1/B CLKBUF1_9/Y NOR2X1_33/Y gnd vdd DFFPOSX1
XNAND2X1_21 gnd INVX1_59/Y gnd NAND2X1_21/Y vdd NAND2X1
XDFFPOSX1_126 NOR2X1_158/A CLKBUF1_2/Y AOI21X1_98/Y gnd vdd DFFPOSX1
XFILL_8_1 gnd vdd FILL
XDFFPOSX1_24 INVX1_23/A CLKBUF1_10/Y NOR2X1_21/Y gnd vdd DFFPOSX1
XNOR2X1_4 INVX1_3/Y BUFX4_39/Y gnd NOR2X1_4/Y vdd NOR2X1
XOAI22X1_9 OAI22X1_9/A MUX2X1_5/B INVX1_214/Y OAI22X1_9/D gnd OAI22X1_9/Y vdd OAI22X1
XFILL_6_2_1 gnd vdd FILL
XFILL_8_0_0 gnd vdd FILL
XINVX1_200 INVX1_200/A gnd INVX1_200/Y vdd INVX1
XINVX1_82 target[5] gnd INVX1_82/Y vdd INVX1
XINVX1_164 INVX1_164/A gnd INVX1_164/Y vdd INVX1
XNAND3X1_26 NAND3X1_26/A NAND3X1_26/B NAND3X1_26/C gnd NOR2X1_52/A vdd NAND3X1
XINVX1_46 target[13] gnd INVX1_46/Y vdd INVX1
XOAI22X1_11 INVX1_217/Y INVX1_216/A INVX1_218/Y OR2X2_5/B gnd NOR3X1_7/A vdd OAI22X1
XINVX1_10 BUFX2_19/A gnd INVX1_10/Y vdd INVX1
XINVX1_128 OAI22X1_6/B gnd INVX1_128/Y vdd INVX1
XAND2X2_32 AND2X2_32/A INVX2_17/A gnd AND2X2_32/Y vdd AND2X2
XBUFX4_17 BUFX4_18/A gnd NOR3X1_4/A vdd BUFX4
XNOR2X1_71 NOR2X1_71/A NOR2X1_71/B gnd NOR2X1_71/Y vdd NOR2X1
XINVX2_20 INVX2_20/A gnd MUX2X1_7/B vdd INVX2
XNOR2X1_35 NOR2X1_35/A NOR2X1_35/B gnd AND2X2_4/A vdd NOR2X1
XNOR2X1_196 INVX1_207/Y INVX1_206/Y gnd MUX2X1_5/S vdd NOR2X1
XOAI21X1_163 INVX2_19/Y INVX4_4/Y INVX2_17/A gnd XNOR2X1_26/A vdd OAI21X1
XOR2X2_3 INVX2_3/Y gnd gnd OR2X2_3/Y vdd OR2X2
XNOR2X1_160 NOR2X1_160/A BUFX4_30/Y gnd NOR2X1_160/Y vdd NOR2X1
XOAI21X1_127 AND2X2_22/Y NOR2X1_171/Y AOI21X1_78/C gnd OAI21X1_127/Y vdd OAI21X1
XNOR2X1_124 OR2X2_22/B OR2X2_23/A gnd AND2X2_15/B vdd NOR2X1
XXOR2X1_8 XOR2X1_8/A XOR2X1_8/B gnd XOR2X1_8/Y vdd XOR2X1
XAOI21X1_67 AOI21X1_67/A XNOR2X1_21/Y NOR2X1_133/Y gnd AOI21X1_67/Y vdd AOI21X1
XBUFX2_34 BUFX2_34/A gnd BUFX2_34/Y vdd BUFX2
XAOI21X1_31 INVX1_40/Y BUFX4_27/Y AOI21X1_31/C gnd DFFPOSX1_1/D vdd AOI21X1
XNAND2X1_133 XOR2X1_12/Y NOR2X1_182/Y gnd AOI21X1_96/B vdd NAND2X1
XOR2X2_20 OR2X2_20/A OR2X2_20/B gnd OR2X2_20/Y vdd OR2X2
XFILL_13_2_0 gnd vdd FILL
XFILL_1_0_1 gnd vdd FILL
XINVX2_7 INVX2_7/A gnd INVX2_7/Y vdd INVX2
XDFFPOSX1_97 NAND3X1_14/A CLKBUF1_5/Y AOI21X1_53/Y gnd vdd DFFPOSX1
XOAI21X1_79 NOR2X1_95/A OR2X2_16/Y OAI21X1_79/C gnd AOI21X1_63/C vdd OAI21X1
XNAND2X1_94 block6[0] BUFX4_32/Y gnd INVX1_162/A vdd NAND2X1
XNOR2X1_5 INVX1_4/Y NOR2X1_5/B gnd NOR2X1_5/Y vdd NOR2X1
XNAND2X1_58 INVX2_8/A INVX1_121/Y gnd NAND2X1_58/Y vdd NAND2X1
XNAND2X1_22 XNOR2X1_2/Y XNOR2X1_3/Y gnd NOR2X1_48/B vdd NAND2X1
XDFFPOSX1_127 XNOR2X1_22/B CLKBUF1_7/Y AOI21X1_97/Y gnd vdd DFFPOSX1
XDFFPOSX1_61 INVX1_216/A CLKBUF1_8/Y AOI22X1_10/Y gnd vdd DFFPOSX1
XOAI21X1_43 AOI21X1_40/Y NAND2X1_24/Y OAI21X1_43/C gnd OAI21X1_43/Y vdd OAI21X1
XFILL_0_3_0 gnd vdd FILL
XAOI21X1_1 AOI21X1_1/A OAI21X1_1/Y BUFX4_4/Y gnd AOI21X1_1/Y vdd AOI21X1
XDFFPOSX1_25 INVX1_24/A CLKBUF1_10/Y NOR2X1_22/Y gnd vdd DFFPOSX1
XFILL_8_0_1 gnd vdd FILL
XINVX1_83 target[4] gnd INVX1_83/Y vdd INVX1
XNAND3X1_27 INVX2_6/A INVX1_98/A XOR2X1_9/B gnd NOR3X1_1/C vdd NAND3X1
XINVX1_201 INVX1_201/A gnd INVX1_201/Y vdd INVX1
XINVX1_165 block9[0] gnd INVX1_165/Y vdd INVX1
XINVX1_47 target[12] gnd INVX1_47/Y vdd INVX1
XFILL_7_3_0 gnd vdd FILL
XINVX1_129 INVX1_103/A gnd INVX1_129/Y vdd INVX1
XINVX1_11 INVX1_11/A gnd INVX1_11/Y vdd INVX1
XAND2X2_33 AND2X2_33/A AND2X2_33/B gnd INVX1_214/A vdd AND2X2
XBUFX4_18 BUFX4_18/A gnd BUFX4_18/Y vdd BUFX4
XNOR2X1_72 NOR3X1_1/Y NOR2X1_72/B gnd NOR2X1_72/Y vdd NOR2X1
XINVX2_21 gnd gnd INVX2_21/Y vdd INVX2
XNOR2X1_36 XOR2X1_1/Y XOR2X1_2/Y gnd NOR2X1_36/Y vdd NOR2X1
XNAND3X1_1 NOR2X1_1/Y AND2X2_2/Y AND2X2_1/Y gnd BUFX4_24/A vdd NAND3X1
XNOR2X1_197 gnd INVX2_19/Y gnd NOR2X1_197/Y vdd NOR2X1
XOR2X2_4 OR2X2_4/A OR2X2_4/B gnd OR2X2_4/Y vdd OR2X2
XOAI21X1_164 INVX1_219/Y OR2X2_8/B BUFX4_44/Y gnd NOR3X1_7/B vdd OAI21X1
XOAI21X1_128 BUFX4_48/Y INVX1_184/Y OAI21X1_127/Y gnd AOI21X1_79/C vdd OAI21X1
XNOR2X1_161 BUFX4_47/Y NAND2X1_97/Y gnd AOI21X1_75/C vdd NOR2X1
XNOR2X1_125 BUFX4_19/Y OR2X2_19/A gnd INVX1_160/A vdd NOR2X1
XXOR2X1_9 XOR2X1_9/A XOR2X1_9/B gnd XOR2X1_9/Y vdd XOR2X1
XAOI21X1_68 AOI21X1_68/A OR2X2_18/Y INVX1_152/Y gnd AOI21X1_69/C vdd AOI21X1
XAOI21X1_32 INVX1_56/Y INVX1_65/A XOR2X1_3/Y gnd AOI21X1_32/Y vdd AOI21X1
XOR2X2_21 OR2X2_21/A OR2X2_21/B gnd MUX2X1_4/B vdd OR2X2
XNAND2X1_134 XOR2X1_13/Y NOR2X1_183/Y gnd AOI21X1_97/B vdd NAND2X1
XFILL_13_2_1 gnd vdd FILL
XFILL_15_0_0 gnd vdd FILL
XOAI21X1_80 NOR2X1_98/Y INVX1_145/Y XNOR2X1_16/Y gnd OAI21X1_82/A vdd OAI21X1
XDFFPOSX1_98 NAND3X1_15/A CLKBUF1_5/Y NOR2X1_83/Y gnd vdd DFFPOSX1
XINVX2_8 INVX2_8/A gnd INVX2_8/Y vdd INVX2
XNAND2X1_95 block8[0] BUFX4_32/Y gnd AOI21X1_68/A vdd NAND2X1
XBUFX2_35 gnd gnd BUFX2_35/Y vdd BUFX2
XNOR2X1_6 INVX1_5/Y NOR2X1_6/B gnd NOR2X1_6/Y vdd NOR2X1
XDFFPOSX1_128 XNOR2X1_23/B CLKBUF1_7/Y AOI21X1_96/Y gnd vdd DFFPOSX1
XNAND2X1_59 INVX1_118/A INVX1_122/Y gnd NAND3X1_31/B vdd NAND2X1
XOAI21X1_44 OR2X2_8/A INVX1_66/Y OAI21X1_43/Y gnd OAI21X1_44/Y vdd OAI21X1
XDFFPOSX1_62 OR2X2_5/B CLKBUF1_8/Y AND2X2_6/Y gnd vdd DFFPOSX1
XDFFPOSX1_26 BUFX2_17/A CLKBUF1_2/Y NOR2X1_23/Y gnd vdd DFFPOSX1
XFILL_2_1_0 gnd vdd FILL
XAOI21X1_2 AOI21X1_2/A OAI21X1_2/Y BUFX4_4/Y gnd AOI21X1_2/Y vdd AOI21X1
XNAND2X1_23 INVX1_216/A INVX1_64/Y gnd AOI22X1_10/A vdd NAND2X1
XFILL_0_3_1 gnd vdd FILL